
                       OWHM 1.0
    U.S. GEOLOGICAL SURVEY MODULAR FINITE-DIFFERENCE 
         ONE-WATER HYDROLOGIC-FLOW MODEL [OWHM]
              Version 1.0.0   11/05/2014

 INCLUDES:
          MODFLOW-2005 Version 1.11.0  08/08/2013
          FMP          Version 3.0.0   08/01/2014
          SWR          Version 1.03.0  09/24/2013
          SWI          Version 2.0.0   07/22/2013
          LGR          Version 2.0.0   09/19/2013
          NWT          Version 1.0.9   07/01/2014


 LIST FILE: ../../test-out-owhm-lgr/fmp-lgr-nwt/OWHM_EX2_child3.lst
                         UNIT  713

 OPENING OWHM_EX2_child3.upw
 FILE TYPE:UPW   UNIT  913   STATUS:OLD    
 FORMAT:FORMATTED              ACCESS:SEQUENTIAL          

 OPENING OWHM_EX2_child3.ba6
 FILE TYPE:BAS6   UNIT 1013   STATUS:OLD    
 FORMAT:FORMATTED              ACCESS:SEQUENTIAL          

 OPENING OWHM_EX2_child3.dis
 FILE TYPE:DIS   UNIT 1113   STATUS:OLD    
 FORMAT:FORMATTED              ACCESS:SEQUENTIAL          

 OPENING OWHM_EX2_child3.fmp
 FILE TYPE:FMP   UNIT 1213   STATUS:OLD    
 FORMAT:FORMATTED              ACCESS:SEQUENTIAL          

 OPENING OWHM_EX2_child3.sfr
 FILE TYPE:SFR   UNIT 1413   STATUS:OLD    
 FORMAT:FORMATTED              ACCESS:SEQUENTIAL          

 OPENING OWHM_EX2_child3.oc
 FILE TYPE:OC   UNIT 1913   STATUS:OLD    
 FORMAT:FORMATTED              ACCESS:SEQUENTIAL          
# Solvers                                                                                                                                                                                                                                                                                                                                                                                                                                                                                                                                                                                                                                                                                                                   

 OPENING OWHM_EX2.nwt
 FILE TYPE:NWT   UNIT 1813   STATUS:OLD    
 FORMAT:FORMATTED              ACCESS:SEQUENTIAL          
#                                                                                                                                                                                                                                                                                                                                                                                                                                                                                                                                                                                                                                                                                                                           

 OPENING ../../test-out-owhm-lgr/fmp-lgr-nwt/OWHM_EX2_child3.hed
 FILE TYPE:DATA   UNIT 2213   STATUS:UNKNOWN
 FORMAT:FORMATTED              ACCESS:SEQUENTIAL          
#                                                                                                                                                                                                                                                                                                                                                                                                                                                                                                                                                                                                                                                                                                                           

 OPENING ../../test-out-owhm-lgr/fmp-lgr-nwt/CBC_child3.OUT
 FILE TYPE:DATA(BINARY)   UNIT 7013   STATUS:UNKNOWN
 FORMAT:UNFORMATTED            ACCESS:STREAM              

 OPENING ../../test-out-owhm-lgr/fmp-lgr-nwt/OWHM_EX2_child_bfh3.hed
 FILE TYPE:DATA   UNIT 5913   STATUS:UNKNOWN
 FORMAT:FORMATTED              ACCESS:SEQUENTIAL          

 OPENING ../../test-out-owhm-lgr/fmp-lgr-nwt/OWHM_EX2_child_bfh3.flw
 FILE TYPE:DATA   UNIT 6913   STATUS:UNKNOWN
 FORMAT:FORMATTED              ACCESS:SEQUENTIAL          

 OPENING ../../test-out-owhm-lgr/fmp-lgr-nwt/OWHM_EX2_child3_SFR_OUTPUT.txt
 FILE TYPE:DATA   UNIT   77   STATUS:UNKNOWN
 FORMAT:FORMATTED              ACCESS:SEQUENTIAL          

 BAS -- BASIC PACKAGE, VERSION 7, 5/2/2005 INPUT READ FROM UNIT 1013
 
 MODFLOW was compiled using mixed precision
 Precision of REAL variables:           6
 Precision of DOUBLE PRECISION variables:          15

 DISCRETIZATION INPUT DATA READ FROM UNIT 1113
 # generic model 1 transient discretization file

*** DIS COORDINATE SYSTEM NOT SEPECIFIED ***
DEFAULT VALUES APPLIED ARE 0° ROTATION
WITH THE ORIGIN (0,0) LOCATED AT THE MODEL'S LOWER LEFT CORNER


    4 LAYERS        15 ROWS         6 COLUMNS
     24 STRESS PERIOD(S) IN SIMULATION
 MODEL TIME UNIT IS DAYS
 MODEL LENGTH UNIT IS METERS
  Confining bed flag for each layer:
   1   1   1   0

                     DELR =   166.667    

                     DELC =   166.667    

 OPENING FILE ON UNIT   99:
 ./DATA_FMP/GSE_child3.in                                                                                                                                                                                                                                                                                                                                                                                                                                                                                                                                                                                                                                                                                                    



           TOP ELEVATION OF LAYER 1
 READING ON UNIT   99 WITH FORMAT: (FREE)              

   MODEL LAYER BOTTOM EL. =   205.000     FOR LAYER   1

 BOT. EL. OF QUASI-3D BED =   200.000     FOR LAYER   1

   MODEL LAYER BOTTOM EL. =   140.000     FOR LAYER   2

 BOT. EL. OF QUASI-3D BED =   125.000     FOR LAYER   2

   MODEL LAYER BOTTOM EL. =   65.0000     FOR LAYER   3

 BOT. EL. OF QUASI-3D BED =   60.0000     FOR LAYER   3

   MODEL LAYER BOTTOM EL. =   0.00000     FOR LAYER   4


 STRESS PERIOD     LENGTH       TIME STEPS     MULTIPLIER FOR DELT    SS FLAG
 ----------------------------------------------------------------------------
        1         30.42000          2                    1.000         TR
        2         30.42000          2                    1.000         TR
        3         30.42000          2                    1.000         TR
        4         30.42000          2                    1.000         TR
        5         30.42000          2                    1.000         TR
        6         30.42000          2                    1.000         TR
        7         30.42000          2                    1.000         TR
        8         30.42000          2                    1.000         TR
        9         30.42000          2                    1.000         TR
       10         30.42000          2                    1.000         TR
       11         30.42000          2                    1.000         TR
       12         30.42000          2                    1.000         TR
       13         30.42000          2                    1.000         TR
       14         30.42000          2                    1.000         TR
       15         30.42000          2                    1.000         TR
       16         30.42000          2                    1.000         TR
       17         30.42000          2                    1.000         TR
       18         30.42000          2                    1.000         TR
       19         30.42000          2                    1.000         TR
       20         30.42000          2                    1.000         TR
       21         30.42000          2                    1.000         TR
       22         30.42000          2                    1.000         TR
       23         30.42000          2                    1.000         TR
       24         30.42000          2                    1.000         TR

 TRANSIENT SIMULATION



 
 # generic model 1                                                               
 THE FREE FORMAT OPTION HAS BEEN SELECTED

 THE MAX STORAGE FOR PROPERTIES DEFINED BY PARAMETERS IS: 
 MAX STORAGE OF PARAMETERS (MXPAR)  IS       2000
 MAX STORAGE OF INSTANCES  (MXINST) IS      50000
 MAX STORAGE OF CLUSTERS   (MXCLST) IS    2000000

 CALCULATE FLOW BETWEEN ADJACENT CONSTANT-HEAD CELLS

 OPENING FILE ON UNIT   99:
 OWHM_EX2_child3.ib                                                                                                                                                                                                                                                                                                                                                                                                                                                                                                                                                                                                                                                                                                          



                     BOUNDARY ARRAY FOR LAYER   1
 READING ON UNIT   99 WITH FORMAT: (FREE)              

 OPENING FILE ON UNIT   99:
 OWHM_EX2_child3.ib                                                                                                                                                                                                                                                                                                                                                                                                                                                                                                                                                                                                                                                                                                          



                     BOUNDARY ARRAY FOR LAYER   2
 READING ON UNIT   99 WITH FORMAT: (FREE)              

 OPENING FILE ON UNIT   99:
 OWHM_EX2_child3.ib                                                                                                                                                                                                                                                                                                                                                                                                                                                                                                                                                                                                                                                                                                          



                     BOUNDARY ARRAY FOR LAYER   3
 READING ON UNIT   99 WITH FORMAT: (FREE)              

 OPENING FILE ON UNIT   99:
 OWHM_EX2_child3.ib                                                                                                                                                                                                                                                                                                                                                                                                                                                                                                                                                                                                                                                                                                          



                     BOUNDARY ARRAY FOR LAYER   4
 READING ON UNIT   99 WITH FORMAT: (FREE)              

CHECKING FOR VALID MODEL DIMENIONS FOR DELR, DELC, AND THICKNESS


 AQUIFER HEAD WILL BE SET TO  -333.00     AT ALL NO-FLOW NODES (IBOUND=0).

             INITIAL HEAD =   0.00000     FOR LAYER   1

             INITIAL HEAD =   0.00000     FOR LAYER   2

             INITIAL HEAD =   0.00000     FOR LAYER   3

             INITIAL HEAD =   0.00000     FOR LAYER   4

 OUTPUT CONTROL IS SPECIFIED ONLY AT TIME STEPS FOR WHICH OUTPUT IS DESIRED
 HEADS WILL BE SAVED WITH FORMAT: (100F8.2)           
 SAVED HEADS WILL BE LABELED
 COMPACT CELL-BY-CELL BUDGET FILES WILL BE WRITTEN
 HEAD PRINT FORMAT CODE IS  -3    DRAWDOWN PRINT FORMAT CODE IS   0
 HEADS WILL BE SAVED ON UNIT 2213    DRAWDOWNS WILL BE SAVED ON UNIT    0  WATER BUDGETs WILL BE SAVED ON UNIT 

 LGR2 -- LOCAL GRID REFINEMENT, VERSION 2.0, 06/25/2013
        INPUT READ FOR MODEL  4 DEFINED BY NAME FILE OWHM_EX2_child3.nam

 LOCAL GRID REFINEMENT IS ACTIVE FOR CHILD ONLY
               STARTING HEADS FROM PARENT WILL BE USED: ISHFLG =   1
               VALUE IN IBOUND INDICATING BOUNDARY INTERFACE = 4913
               BOUNDARY HEADS WILL BE SAVED ON UNIT  5913
               BOUNDARY FLUXES WILL BE SAVED ON UNIT  6913
               MAX NUMBER OF LGR ITERATIONS = 30
               LGR ITERATION RESULTS WRITTEN TO SCREEN: IOUTLGR =  -1

               WEIGHTING FACTORS FOR RELAXATION
               RELAXH(HEAD) RELAXF(FLUX)
               -------------------------
               0.500E+00      0.500E+00

               CLOSURE CRITERIA FOR LGR ITERATIONS
               HCLOSELGR       FCLOSELGR
               -------------------------
               5.000E-04      1.000E+00

               STARTING LAYER, ROW, COLUMN=   1,   6,  10
               ENDING LAYER, ROW, COLUMN=     4,  10,  11
               NCPP: NUMBER OF CHILD CELLS PER WIDTH OF PARENT CELL= 3
               NCPPL: NUMBER OF CHILD LAYERS IN LAYER  1 OF PARENT = 1
               NCPPL: NUMBER OF CHILD LAYERS IN LAYER  2 OF PARENT = 1
               NCPPL: NUMBER OF CHILD LAYERS IN LAYER  3 OF PARENT = 1
               NCPPL: NUMBER OF CHILD LAYERS IN LAYER  4 OF PARENT = 1
 # NWT: Newton Solver file created on 3/20/2013 by ModelMuse version 2.18.1.0.

 NWT1 -- Newton Solver, VERSION 1.0.9, 07/01/2014
         INPUT READ FROM UNIT 1813

 COMPLEX OPTION:
 DEFAULT SOLVER INPUT VALUES REFLECT STRONGLY NONLINEAR MODEL
 ***GMRES linear solver will be used***
 
   CONVERGENCE CRITERION OF   0.100000E-03 FOR HEAD SOLUTION
   AND A TOLERANCE OF   0.500000E+03 FOR FLOW SOLUTION AND 
   A MAXIMUM OF   100 OUTER ITERATIONS. 


   D-B-D REDUCTION FACTOR OF    0.850000E+00 AND 
   A D-B-D INCREASE FACTOR OF    0.100000E-04 AND 
   A D-B-D RELAXATION OF    0.000000E+00 AND 
   A MOMENTUM FACTOR OF    0.100000E+00 .


   BACKTRACKING IS ACTIVE 
   THE MAXIMUM NUMBER OF BACKTRACKS IS    50 AND 
   THE BACKTRACKING TOLERANCE IS    0.110000E+01 AND
   THE BACKTRACKING REDUCTION FACTOR IS    0.700000E+00

 GMRES -- LINEAR SOLUTION BY GMRES PACKAGE 
     UNIT:  1813
     adapted for HYDROTHERM by Kipp and others (2008)
     using software originally developed by Saad (1990)
     using algorithms described in Saad (2003)

 UPW1 -- UPSTREAM WEIGHTING FLOW PACKAGE, VERSION 1.0.6, 12/05/2012
         INPUT READ FROM UNIT913

 CELL-BY-CELL FLOWS WILL BE SAVED ON UNIT 7013
 No named parameters

   LAYER FLAGS:
 LAYER       LAYTYP          LAYAVG    CHANI           LAYVKA           LAYWET
 ---------------------------------------------------------------------------
    1             1             0     1.000E+00             1             0
    2             0             0     1.000E+00             1             0
    3             0             0     1.000E+00             1             0
    4             0             0     1.000E+00             1             0

   INTERPRETATION OF LAYER FLAGS:
                        INTERBLOCK     HORIZONTAL    DATA IN
         LAYER TYPE   TRANSMISSIVITY   ANISOTROPY   ARRAY VKA   WETTABILITY
 LAYER   (LAYTYP)        (LAYAVG)      (CHANI)     (LAYVKA)       (LAYWET)
 ---------------------------------------------------------------------------
    1   CONVERTIBLE      HARMONIC     1.000E+00    ANISOTROPY  NON-WETTABLE
    2      CONFINED      HARMONIC     1.000E+00    ANISOTROPY  NON-WETTABLE
    3      CONFINED      HARMONIC     1.000E+00    ANISOTROPY  NON-WETTABLE
    4      CONFINED      HARMONIC     1.000E+00    ANISOTROPY  NON-WETTABLE

    HYD. COND. ALONG ROWS =   10.0000     FOR LAYER   1

  HORIZ. TO VERTICAL ANI. =   1.00000     FOR LAYER   1

         SPECIFIC STORAGE =  1.000000E-05 FOR LAYER   1

           SPECIFIC YIELD =  2.000000E-02 FOR LAYER   1

 QUASI3D VERT. HYD. COND. =  2.000000E-03 FOR LAYER   1

    HYD. COND. ALONG ROWS =   1.50000     FOR LAYER   2

  HORIZ. TO VERTICAL ANI. =   1.00000     FOR LAYER   2

         SPECIFIC STORAGE =  1.000000E-05 FOR LAYER   2

 QUASI3D VERT. HYD. COND. =  1.000000E-03 FOR LAYER   2

    HYD. COND. ALONG ROWS =   1.00000     FOR LAYER   3

  HORIZ. TO VERTICAL ANI. =   1.00000     FOR LAYER   3

         SPECIFIC STORAGE =  1.000000E-05 FOR LAYER   3

 QUASI3D VERT. HYD. COND. =  5.000000E-04 FOR LAYER   3

    HYD. COND. ALONG ROWS =  0.150000     FOR LAYER   4

  HORIZ. TO VERTICAL ANI. =   1.00000     FOR LAYER   4

         SPECIFIC STORAGE =  1.000000E-05 FOR LAYER   4

 SFR7 -- STREAMFLOW ROUTING PACKAGE, VERSION 1.0.5, 2012-04-05
         INPUT READ FROM UNIT 1413
 # Project 1 New Stream Aquifer Package
 No named parameters
 Segment information will not be 
 read by reach
 No named parameters

 NO TABFILE SPECIFIED FOR PACKAGE SFR 

 No specifed inflow files
 AUXILIARY STREAM FLOW ROUTING VARIABLE: LGRGRID         
 AUXILIARY STREAM FLOW ROUTING VARIABLE: LGRSEG          


 NUMBER OF STREAM REACHES IS    6

 NUMBER OF STREAM SEGMENTS IS    1

 NUMBER OF STREAM PARAMETERS IS    0

 NUMBER OF STREAM SEGMENTS DEFINED USING PARAMETERS IS              0

 MAXIMUM ERROR FOR STREAM LEAKAGE RATES IS  1.00E-04

 CONSTANT FOR MANNINGS EQUATION IS  8.6400E+04



 FLOW TO AND FROM GROUND WATER FOR EACH STREAM REACH WILL BE SAVED ON UNIT 7013
 STREAM OUTPUT WILL BE WRITTEN TO FILE ON UNIT   77


   STREAM NETWORK DESCRIPTION: 

   LAYER    ROW    COL   SEGMENT   REACH     LENGTH
                          NUMBER   NUMBER    IN CELL        
   --------------------------------------------------
      1     14      1       1        1    1.6667E+02
      1     14      2       1        2    1.6667E+02
      1     14      3       1        3    1.6667E+02
      1     14      4       1        4    1.6667E+02
      1     14      5       1        5    1.6667E+02
      1     14      6       1        6    1.6667E+02





 FMP3 -- FARM PROCESS, VERSION 3.0, 06/15/1998 03:37:00
 INPUT READ FROM UNIT
 # FMP2 Example Model -- ZERO SCENARIO / EQUAL APPROPRATION
               1 Named Parameters     
               0 Child Model Well List entries
              15 Parent Model Well List entries used at Maximum for Child Model Wells

 DIMENSIONS:
   MAXIMUM OF     30 FARM WELLS
   MAXIMUM OF        8 FARMS
   TOTAL OF        3 SOIL-TYPES
   TOTAL OF        6 CROP-TYPES

 WHEN TO READ SETTINGS:
   ROOT ZONE DEPTHS ............................  SPECIFIED FOR EACH STRESS PERIOD
                                                  IN PARENT MODEL AND USED IN CHILD MODEL WHERE NEEDED

   CROP COEFFICIENTS ...........................  AND
   REFERENCE EVAPOTRANSPIRATION FLUX ...........  SPECIFIED FOR EACH STRESS PERIOD
                                                  IN PARENT MODEL AND USED IN CHILD MODEL WHERE NEEDED

   PRECIPITATION FLUX ..........................  SPECIFIED FOR EACH STRESS PERIOD
                                                  IN PARENT MODEL AND USED IN CHILD MODEL WHERE NEEDED

   FRACTIONS OF TRANS. & EVAP. OF CONSUMPTIVE USE SPECIFIED FOR EACH STRESS PERIOD
                                                  IN PARENT MODEL AND USED IN CHILD MODEL WHERE NEEDED

   FRACTIONS OF IN-EFFICIENT LOSSES TO SW-RUNOFF  SPECIFIED FOR EACH STRESS PERIOD
                                                  IN PARENT MODEL AND USED IN CHILD MODEL WHERE NEEDED

   ON-FARM EFFICIENCIES ........................  SPECIFIED FOR EACH STRESS PERIOD
                                                  IN PARENT MODEL AND USED IN CHILD MODEL WHERE NEEDED

   WATER-BALANCE SUBREGIONS (FARMS).............  SPECIFIED FOR THE ENTIRE SIMULATION

 WATER POLICY SETTINGS:
   EFFICIENCY BEHAVIOR: CONSERVATIVE BEHAVIOR: CONSTANT EFFICIENCY OVER A TIME STEP
                        EFFICIENCY DOES NOT VARY WITH CHANGING GROUNDWATER LEVEL, BUT
                        DELIVERY MAY VARY WITH CHANGING GROUNDWATER LEVEL
                        EFF. RESET TO SPEC. EFF. AT BEG. OF EACH TIME STEP
   NO DEFICIENCY SCENARIO APPLIED (ZERO SCENARIO)
     ASSUMPTION FOR DEFICIENCY CASE: SUPPLY = DEMAND, I.E.
     SUPPLY SUFFICIENTLY SUPPLEMENTED FROM OUTSIDE MODELING DOMAIN
   NO NON-IRRIGATION-SEASON HAS BEEN SELECTED
   NO GROUNDWATER ALLOTMENTS (Volumetric Rate) HAVE BEEN SELECTED -- Maximum Groundwater Delivery limited by Total Capacity of all Farm wells per Farm per Stress Period

 SURFACE-WATER SETTINGS (SUPPLY / RETURNFLOW / RIGHTS:
   FARM DELIVERY REQUIREMENT SUPPLIED BY:
     NON-ROUTED SURFACE-WATER DELIVERIES (FIRST PRIORITY).
     MAXIMUM NUMBER OF NON-ROUTED DELIVERY TYPES =    1
   NO ROUTED SURFACE-WATER DELIVERY EXISTS
   NO SEMI-ROUTED RUNOFF-RETURNFLOW EXISTS
   FARM RUNOFF RETURNED TO STREAM-NETWORK BY:
     FULLY ROUTED SURFACE-WATER RETURNFLOW FROM ALL FARMS
     TO ALL REACHES OF ANY STREAM SEGMENT LOCATED WITHIN EACH FARM

 PRINT SETTINGS:
   FARM WELL FLOW RATES:
     A LIST (FARM-WELL ID, FARM ID, LAY, ROW, COL, RATE) IS SAVED 
     ON ASCII FILE "FWELLS.OUT" FOR ALL TIME STEPS
   FARM NET RECHARGE FLOW RATES:
     A 2D INTEGER-ARRAY OF EACH CELLS UPPERMOST ACTIVE LAYER, AND
     A 2D REAL-ARRAY OF EACH CELLS NET RECHARGE RATE 
     WILL BE SAVED AS BINARY FILE ON UNIT 7013 FOR TIME STEPS, FOR WHICH IN OUTPUT CONTOL
     "SAVE BUDGET" IS SPECIFIED (USING WORDS), OR ICBCFL IS NOT 0 (USING NUMERIC CODES)
   FARM DEMAND & SUPPLY FLOW RATES:
     A LIST OF INITIAL DEMAND & SUPPLY FLOW RATES, AND OF
     FINAL DEMAND AND SUPPLY FLOW RATES AFTER THE APPLICATION OF A DEFICIENCY SCENARIO
     WILL BE SAVED ON ASCII-FILE "FDS.OUT" FOR ALL TIME STEPS.  LIST =
     (PER,TSTP,TIME,FID,OFE,
      TFDR-INI,NR-SWD-INI,R-SWD-INI,QREQ,TFDR-FIN,NR-SWD-FIN,R-SWD-FIN,QREQ,Q,DEF-FLAG)
     (<-- BEFORE DEFICIENCY SCENARIO --> <--       AFTER DEFICIENCY SCENARIO       -->)
   DETAILED FARM BUDGET:
     A LIST OF VOLUMETRIC FLOW RATES FOR ANY TIME STEP [L^3/T], AND OF CUMULATIVE VOLUMES [L^3] 
     WILL BE SAVED ON ASCII-FILE "FB_DETAILS.OUT" FOR ALL TIME STEPS.
      LIST = (PER,TSTP,TIME,FID;
      RATES INTO FARM: Q-p-in, Q-nrd-in, Q-srd-in, Q-rd-in, Q-wells-in, Q-egw-in, Q-tgw-in, Q-ext-in, Q-tot-in,
      RATES OUT OF FARM: Q-ei-out, Q-ep-out, Q-egw-out, Q-ti-out, Q-tp-out, Q-tgw-out Q-run-out, Q-dp-out, Q-nrd-out, Q-srd-out, Q-rd-out, Q-wells-out, Q-tot-out,
      RATE BUDGET ERROR: Q-in-minus-out, Q-Discrepancy [%];
      CUMULATIVE VOLUMES INTO FARM: V-p-in, V-nrd-in, V-srd-in, V-rd-in, V-wells-in, V-egw-in, V-tgw-in, V-ext-in, V-tot-in,
      CUMULATIVE VOLUMES OUT OF FARM: V-ei-out, V-ep-out, V-egw-out, V-ti-out, V-tp-out, V-tgw-out V-run-out, V-dp-out, V-nrd-out, V-srd-out, V-rd-out, V-wells-out, V-tot-out,
      VOLUMETRIC BUDGET ERROR: Q-in-minus-out, Q-Discrepancy [%])
   ROUTING INFOMATION:
     WRITTEN TO ASCII FILE "ROUT.OUT" FOR FIRST STRESS PERIOD ONLY
 
 AUXILIARY FARM WELL PARAMETER: QMAXRESET       
 AUXILIARY FARM WELL PARAMETER: LGRGRID         


     1 Farm Well parameters

 PARAMETER NAME:WELLS1       TYPE:QMAX
 Parameter value from package file is:    1000.0    
   NUMBER OF ENTRIES:      0
 
 WELL NO. LAYER    ROW    COL  F-WELL ID    FARM ID      QMAXfac         QMAXRESET       LGRGRID         
 --------------------------------------------------------------------------------------------------------
       2      1      2      2          5          2      2.0000E+00     0    0
       3      1      5      5          6          2      1.0000E+00     0    0
1
                            STRESS PERIOD NO.      1, LENGTH =   30.42000    
                            -----------------------------------------------

                              NUMBER OF TIME STEPS =     2

                               MULTIPLIER FOR DELT =     1.000

                            INITIAL TIME STEP SIZE =   15.21000    

PARAMETERS HAVE BEEN USED IN PACKAGES
THE CURRENT STORAGE FOR PARAMETERS IS: 
# PARAMETER=         1 WITH MAX STORAGE (MXPAR)  OF      2000
# INSTANCES=         0 WITH MAX STORAGE (MXINST) OF     50000
# CLUSTERS =         0 WITH MAX STORAGE (MXCLST) OF   2000000
YOU CAN INCREASE/DECREASE STORAGE WITH BAS OPTION:
MAXPARAM  MXPAR  MXCLST MXINST



 CLASSIFICATION & COUNT OF STREAM SEGMENTS BASED ON SOURCE OF INFLOW:

                HEADWATER     DIVERSION     RECEIVES TRIBUTARY FLOW
                ---------     ---------     -----------------------
                     1              0               0




 WELL NO. LAYER    ROW    COL  F-WELL ID    FARM ID         QMAX         QMAXRESET       LGRGRID         
 --------------------------------------------------------------------------------------------------------
       1      1      2      2          5          2      2.0000E+00     0    0
       2      1      5      5          6          2      1.0000E+00     0    0

 Parameter:  WELLS1
 WELL NO. LAYER    ROW    COL  F-WELL ID    FARM ID         QMAX         QMAXRESET       LGRGRID         
 --------------------------------------------------------------------------------------------------------
       3      1      2      2          5          2      2.0000E+03              0              0
       4      1      5      5          6          2      1.0000E+03              0              0

 NUMBER OF ACTIVE FARM WELLS:        4

 FARM-ID  NUMBER OF WELLS PER FARM  TOTAL MAX.CAPACITY PER FARM
       1                         0                       0.0000
       2                         4                    3003.0000
       3                         0                       0.0000
       4                         0                       0.0000
       5                         0                       0.0000
       6                         0                       0.0000
       7                         0                       0.0000
       8                         0                       0.0000

Transpiratory and Evaporative Fractions of Crop Consumptive Use
    % Transpiration % Evap. for Precip. % Evap. for Irrig.
    3          0.957          0.043          0.043
    5          0.777          0.223          0.000

FRACTIONS OF IN-EFFICIENT LOSSES TO SW-RUNOFF FROM 
     PRECIPITATION:  IRRIGATION:
    3          0.600          0.500
    5          0.840          0.000
 
 SOLVING FOR HEAD 
                                                   Max.-Head-Change                        Max.-Flux-Residual
  Residual-Control   Outer-Iter.   Inner-Iter.     Column Row Layer    Max.-Head-Change    Column Row Layer    Max.-Flux-Residual            L2-New               L2-Old           Solver-Max-Delh
          0                 1          11             1    6     1      -0.3423309077E+02       3   14    1      -0.4003301974E+04      0.2892360611E+05      0.0000000000E+00     -0.3423309077E+02
          0                 2          10             3   14     1      -0.5860288911E+01       3   14    1      -0.3932315612E+04      0.9339502212E+04      0.2892360611E+05     -0.5860288911E+01
          0                 3           9             1    5     1       0.3254646100E+00       2   14    1       0.2006697559E+03      0.6013530729E+03      0.9339502212E+04      0.3254646100E+00
          0                 4           7             3   14     1       0.1875848375E-01       1   14    1       0.1185573074E+02      0.3080148942E+02      0.6013530729E+03      0.1875848375E-01
          0                 5           5             3   14     1       0.1274604843E-02       1   14    1       0.8291635932E+00      0.1870946040E+01      0.3080148942E+02      0.1274604843E-02
          0                 6           4             3   14     1       0.9134739600E-04       1   14    1       0.6350319023E-01      0.1439936973E+00      0.1870946040E+01      0.9134739600E-04

    ------------------------------------------------
       NWT REQUIRED            6 OUTER ITERATIONS 
       AND A TOTAL OF         46 INNER ITERATIONS.
    ------------------------------------------------
                                                   Max.-Head-Change                        Max.-Flux-Residual
  Residual-Control   Outer-Iter.   Inner-Iter.     Column Row Layer    Max.-Head-Change    Column Row Layer    Max.-Flux-Residual            L2-New               L2-Old           Solver-Max-Delh
          0                 1          11             1   11     1      -0.2044713316E+02       1   10    1      -0.9127965870E+04      0.2805742730E+05      0.1439936973E+00     -0.2044713316E+02
          0                 2           9             1   11     2       0.1092137399E+01       1   15    1       0.5550214016E+03      0.1456579653E+04      0.2805742730E+05      0.1092137399E+01
          0                 3           8             1   11     2       0.6162865098E-01       1   15    1       0.4493699054E+02      0.1305562767E+03      0.1456579653E+04      0.6162865098E-01
          0                 4           7             6   10     1       0.5786764049E-02       1   15    1       0.3690853423E+01      0.1263614557E+02      0.1305562767E+03      0.5786764049E-02
          0                 5           5             6    7     1       0.5907451747E-03       1   15    1       0.3118410019E+00      0.1236436792E+01      0.1263614557E+02      0.5907451747E-03
          0                 6           4             6    7     1       0.6232478688E-04       6    1    1       0.3296759049E-01      0.1263136456E+00      0.1236436792E+01      0.6232478688E-04

    ------------------------------------------------
       NWT REQUIRED            6 OUTER ITERATIONS 
       AND A TOTAL OF         44 INNER ITERATIONS.
    ------------------------------------------------
                                                   Max.-Head-Change                        Max.-Flux-Residual
  Residual-Control   Outer-Iter.   Inner-Iter.     Column Row Layer    Max.-Head-Change    Column Row Layer    Max.-Flux-Residual            L2-New               L2-Old           Solver-Max-Delh
          0                 1          10             6    7     2      -0.3627601219E+01       6    1    1      -0.2219049735E+04      0.6478424279E+04      0.1263136456E+00     -0.3627601219E+01
          0                 2           9             1   11     2       0.2645027199E+00       6    1    1       0.1324285383E+03      0.3137261062E+03      0.6478424279E+04      0.2645027199E+00
          0                 3           7             6    8     2       0.1492296916E-01       6    1    1       0.1043612255E+02      0.2812034522E+02      0.3137261062E+03      0.1492296916E-01
          0                 4           6             6    3     1       0.1112463047E-02       6    1    1       0.8567928823E+00      0.2690868535E+01      0.2812034522E+02      0.1112463047E-02
          0                 5           4             6    6     1       0.1217903837E-03       6    1    1       0.7918400288E-01      0.2728950628E+00      0.2690868535E+01      0.1217903837E-03
          0                 6           2             1    1     1       0.1480849125E-04       1   15    1       0.1568329579E-01      0.2872524961E-01      0.2728950628E+00      0.1480849125E-04

    ------------------------------------------------
       NWT REQUIRED            6 OUTER ITERATIONS 
       AND A TOTAL OF         38 INNER ITERATIONS.
    ------------------------------------------------
                                                   Max.-Head-Change                        Max.-Flux-Residual
  Residual-Control   Outer-Iter.   Inner-Iter.     Column Row Layer    Max.-Head-Change    Column Row Layer    Max.-Flux-Residual            L2-New               L2-Old           Solver-Max-Delh
          0                 1           9             6    1     2      -0.1116225092E+01       6   15    1      -0.7804203477E+03      0.2208654534E+04      0.2872524961E-01     -0.1116225092E+01
          0                 2           8             6    1     2       0.8870304891E-01       1   10    1      -0.5713179118E+02      0.1425145332E+03      0.2208654534E+04      0.8870304891E-01
          0                 3           6             1   10     1      -0.5459146945E-02       1   10    1      -0.4729869461E+01      0.1120994845E+02      0.1425145332E+03     -0.5459146945E-02
          0                 4           5             1   10     1      -0.4212322471E-03       1   10    1      -0.3821664761E+00      0.9308436508E+00      0.1120994845E+02     -0.4212322471E-03
          0                 5           3             1   10     1      -0.3589606997E-04       1   10    1      -0.3200452012E-01      0.8356345593E-01      0.9308436508E+00     -0.3589606997E-04

    ------------------------------------------------
       NWT REQUIRED            5 OUTER ITERATIONS 
       AND A TOTAL OF         31 INNER ITERATIONS.
    ------------------------------------------------
                                                   Max.-Head-Change                        Max.-Flux-Residual
  Residual-Control   Outer-Iter.   Inner-Iter.     Column Row Layer    Max.-Head-Change    Column Row Layer    Max.-Flux-Residual            L2-New               L2-Old           Solver-Max-Delh
          0                 1           9             1   11     1       0.1233677314E+01       1   10    1       0.6549696727E+03      0.1250028087E+04      0.8356345593E-01      0.1233677314E+01
          0                 2           7             1   11     1      -0.7080135745E-01       1   12    1      -0.5421284694E+02      0.9126517222E+02      0.1250028087E+04     -0.7080135745E-01
          0                 3           6             1   11     1      -0.5806489116E-02       1   11    1      -0.3818417559E+01      0.7225174087E+01      0.9126517222E+02     -0.5806489116E-02
          0                 4           4             1   10     1      -0.4848587865E-03       1   10    1      -0.3459785769E+00      0.5710857382E+00      0.7225174087E+01     -0.4848587865E-03
          0                 5           3             1   10     1      -0.4805486994E-04       1   10    1      -0.3459611075E-01      0.5438155012E-01      0.5710857382E+00     -0.4805486994E-04

    ------------------------------------------------
       NWT REQUIRED            5 OUTER ITERATIONS 
       AND A TOTAL OF         29 INNER ITERATIONS.
    ------------------------------------------------
                                                   Max.-Head-Change                        Max.-Flux-Residual
  Residual-Control   Outer-Iter.   Inner-Iter.     Column Row Layer    Max.-Head-Change    Column Row Layer    Max.-Flux-Residual            L2-New               L2-Old           Solver-Max-Delh
          0                 1           9             1   11     1       0.6647466315E+00       1   12    1       0.3276076681E+03      0.7248949574E+03      0.5438155012E-01      0.6647466315E+00
          0                 2           7             1   11     2      -0.4129290696E-01       1   12    1      -0.2601280647E+02      0.4177173837E+02      0.7248949574E+03     -0.4129290696E-01
          0                 3           5             1   11     1      -0.2857801137E-02       1   12    1      -0.1751100676E+01      0.3454521595E+01      0.4177173837E+02     -0.2857801137E-02
          0                 4           4             1   10     1      -0.2508160712E-03       1   10    1      -0.1590174302E+00      0.3084717087E+00      0.3454521595E+01     -0.2508160712E-03
          0                 5           2             1   11     1      -0.2267432928E-04       1   11    1      -0.1770928828E-01      0.3022735563E-01      0.3084717087E+00     -0.2267432928E-04

    ------------------------------------------------
       NWT REQUIRED            5 OUTER ITERATIONS 
       AND A TOTAL OF         27 INNER ITERATIONS.
    ------------------------------------------------
                                                   Max.-Head-Change                        Max.-Flux-Residual
  Residual-Control   Outer-Iter.   Inner-Iter.     Column Row Layer    Max.-Head-Change    Column Row Layer    Max.-Flux-Residual            L2-New               L2-Old           Solver-Max-Delh
          0                 1           9             6    8     1       0.2272969285E+00       1   12    1       0.9974946924E+02      0.3900749754E+03      0.3022735563E-01      0.2272969285E+00
          0                 2           7             1   11     2      -0.1473525082E-01       1   12    1      -0.7301893971E+01      0.1722460150E+02      0.3900749754E+03     -0.1473525082E-01
          0                 3           5             1   11     1      -0.8562591224E-03       1   12    1      -0.5028575481E+00      0.1592642625E+01      0.1722460150E+02     -0.8562591224E-03
          0                 4           4             1   10     1      -0.7715308977E-04       6    1    1      -0.4120514938E-01      0.1589816469E+00      0.1592642625E+01     -0.7715308977E-04

    ------------------------------------------------
       NWT REQUIRED            4 OUTER ITERATIONS 
       AND A TOTAL OF         25 INNER ITERATIONS.
    ------------------------------------------------
                                                   Max.-Head-Change                        Max.-Flux-Residual
  Residual-Control   Outer-Iter.   Inner-Iter.     Column Row Layer    Max.-Head-Change    Column Row Layer    Max.-Flux-Residual            L2-New               L2-Old           Solver-Max-Delh
          0                 1           8             6    7     1       0.1299433617E+00       6    1    1       0.6791542147E+02      0.2207963368E+03      0.1589816469E+00      0.1299433617E+00
          0                 2           6             6    8     2      -0.9091012949E-02       6    1    1      -0.4018141751E+01      0.9930411721E+01      0.2207963368E+03     -0.9091012949E-02
          0                 3           5             6    7     2      -0.5184961253E-03       6    1    1      -0.3129381880E+00      0.9134305945E+00      0.9930411721E+01     -0.5184961253E-03
          0                 4           3             6    8     1      -0.4925879267E-04       6    9    1      -0.2841176261E-01      0.8766019008E-01      0.9134305945E+00     -0.4925879267E-04

    ------------------------------------------------
       NWT REQUIRED            4 OUTER ITERATIONS 
       AND A TOTAL OF         22 INNER ITERATIONS.
    ------------------------------------------------
                                                   Max.-Head-Change                        Max.-Flux-Residual
  Residual-Control   Outer-Iter.   Inner-Iter.     Column Row Layer    Max.-Head-Change    Column Row Layer    Max.-Flux-Residual            L2-New               L2-Old           Solver-Max-Delh
          0                 1           8             6    7     2       0.6718282986E-01       6    1    1       0.3755213203E+02      0.1188688399E+03      0.8766019008E-01      0.6718282986E-01
          0                 2           6             6    7     2      -0.4849200594E-02       6    1    1      -0.2266250569E+01      0.6097191136E+01      0.1188688399E+03     -0.4849200594E-02
          0                 3           4             6    7     2      -0.2707806343E-03       6   15    1      -0.1759820934E+00      0.5843966539E+00      0.6097191136E+01     -0.2707806343E-03
          0                 4           3             6    8     1      -0.2319795626E-04       6    8    1      -0.1394616353E-01      0.4978274840E-01      0.5843966539E+00     -0.2319795626E-04

    ------------------------------------------------
       NWT REQUIRED            4 OUTER ITERATIONS 
       AND A TOTAL OF         21 INNER ITERATIONS.
    ------------------------------------------------
                                                   Max.-Head-Change                        Max.-Flux-Residual
  Residual-Control   Outer-Iter.   Inner-Iter.     Column Row Layer    Max.-Head-Change    Column Row Layer    Max.-Flux-Residual            L2-New               L2-Old           Solver-Max-Delh
          0                 1           7             6    5     2       0.2928047420E-01       6   15    1       0.1758245918E+02      0.5413851989E+02      0.4978274840E-01      0.2928047420E-01
          0                 2           5             6    5     2      -0.2147403574E-02       6   15    1      -0.1197913440E+01      0.3039223937E+01      0.5413851989E+02     -0.2147403574E-02
          0                 3           4             6    5     2      -0.1190980098E-03       6   15    1      -0.9038447952E-01      0.2570375794E+00      0.3039223937E+01     -0.1190980098E-03
          0                 4           2             6    6     1      -0.1347192142E-04       6    7    1      -0.9928095504E-02      0.2987732413E-01      0.2570375794E+00     -0.1347192142E-04

    ------------------------------------------------
       NWT REQUIRED            4 OUTER ITERATIONS 
       AND A TOTAL OF         18 INNER ITERATIONS.
    ------------------------------------------------
                                                   Max.-Head-Change                        Max.-Flux-Residual
  Residual-Control   Outer-Iter.   Inner-Iter.     Column Row Layer    Max.-Head-Change    Column Row Layer    Max.-Flux-Residual            L2-New               L2-Old           Solver-Max-Delh
          0                 1           7             5   15     2       0.1144799814E-01       6   15    1       0.7891196325E+01      0.2003891746E+02      0.2987732413E-01      0.1144799814E-01
          0                 2           5             5   15     2      -0.9126185185E-03       6   15    1      -0.5447749998E+00      0.1216610057E+01      0.2003891746E+02     -0.9126185185E-03
          0                 3           3             5   15     2      -0.4911989918E-04       6   15    1      -0.4082952734E-01      0.1025304586E+00      0.1216610057E+01     -0.4911989918E-04

    ------------------------------------------------
       NWT REQUIRED            3 OUTER ITERATIONS 
       AND A TOTAL OF         15 INNER ITERATIONS.
    ------------------------------------------------
                                                   Max.-Head-Change                        Max.-Flux-Residual
  Residual-Control   Outer-Iter.   Inner-Iter.     Column Row Layer    Max.-Head-Change    Column Row Layer    Max.-Flux-Residual            L2-New               L2-Old           Solver-Max-Delh
          0                 1           6             1   11     3       0.6080897943E-02       1   15    1       0.3096701250E+01      0.7032753546E+01      0.1025304586E+00      0.6080897943E-02
          0                 2           4             1   11     3      -0.5180228920E-03       6   15    1      -0.2077725112E+00      0.4592170559E+00      0.7032753546E+01     -0.5180228920E-03
          0                 3           2             1   11     3      -0.2480295272E-04       6   15    1      -0.1836252812E-01      0.3907285449E-01      0.4592170559E+00     -0.2480295272E-04

    ------------------------------------------------
       NWT REQUIRED            3 OUTER ITERATIONS 
       AND A TOTAL OF         12 INNER ITERATIONS.
    ------------------------------------------------
                                                   Max.-Head-Change                        Max.-Flux-Residual
  Residual-Control   Outer-Iter.   Inner-Iter.     Column Row Layer    Max.-Head-Change    Column Row Layer    Max.-Flux-Residual            L2-New               L2-Old           Solver-Max-Delh
          0                 1           5             1   14     2       0.2975041091E-02       1   15    1       0.1645160039E+01      0.3797648829E+01      0.3907285449E-01      0.2975041091E-02
          0                 2           3             1   12     3      -0.2467267158E-03       1   15    1      -0.1166757060E+00      0.2368556504E+00      0.3797648829E+01     -0.2467267158E-03
          0                 3           2             1   11     3      -0.1511226010E-04       1   13    1      -0.1043484715E-01      0.2179366965E-01      0.2368556504E+00     -0.1511226010E-04

    ------------------------------------------------
       NWT REQUIRED            3 OUTER ITERATIONS 
       AND A TOTAL OF         10 INNER ITERATIONS.
    ------------------------------------------------
                                                   Max.-Head-Change                        Max.-Flux-Residual
  Residual-Control   Outer-Iter.   Inner-Iter.     Column Row Layer    Max.-Head-Change    Column Row Layer    Max.-Flux-Residual            L2-New               L2-Old           Solver-Max-Delh
          0                 1           5             1   13     2       0.1452603078E-02       1   15    1       0.6643953999E+00      0.2258492040E+01      0.2179366965E-01      0.1452603078E-02
          0                 2           3             1   13     2      -0.1221490920E-03       1   15    1      -0.5164404225E-01      0.1238708468E+00      0.2258492040E+01     -0.1221490920E-03
          0                 3           2             6    4     1       0.8014178516E-05       1   14    1      -0.9422914474E-02      0.2082813804E-01      0.1238708468E+00      0.8014178516E-05

    ------------------------------------------------
       NWT REQUIRED            3 OUTER ITERATIONS 
       AND A TOTAL OF         10 INNER ITERATIONS.
    ------------------------------------------------
                                                   Max.-Head-Change                        Max.-Flux-Residual
  Residual-Control   Outer-Iter.   Inner-Iter.     Column Row Layer    Max.-Head-Change    Column Row Layer    Max.-Flux-Residual            L2-New               L2-Old           Solver-Max-Delh
          0                 1           5             6    7     1      -0.7154303374E-03       6    8    1      -0.3306990231E+00      0.1148179001E+01      0.2082813804E-01     -0.7154303374E-03
          0                 2           3             6    8     2       0.4904308274E-04       1   14    1      -0.1977933262E-01      0.6095554063E-01      0.1148179001E+01      0.4904308274E-04

    ------------------------------------------------
       NWT REQUIRED            2 OUTER ITERATIONS 
       AND A TOTAL OF          8 INNER ITERATIONS.
    ------------------------------------------------
                                                   Max.-Head-Change                        Max.-Flux-Residual
  Residual-Control   Outer-Iter.   Inner-Iter.     Column Row Layer    Max.-Head-Change    Column Row Layer    Max.-Flux-Residual            L2-New               L2-Old           Solver-Max-Delh
          0                 1           4             1   11     3      -0.4018594045E-03       6    1    1      -0.1488787797E+00      0.5469688284E+00      0.6095554063E-01     -0.4018594045E-03
          0                 2           2             1   11     3       0.2905103521E-04       6   15    1       0.1327075990E-01      0.3544137259E-01      0.5469688284E+00      0.2905103521E-04

    ------------------------------------------------
       NWT REQUIRED            2 OUTER ITERATIONS 
       AND A TOTAL OF          6 INNER ITERATIONS.
    ------------------------------------------------
                                                   Max.-Head-Change                        Max.-Flux-Residual
  Residual-Control   Outer-Iter.   Inner-Iter.     Column Row Layer    Max.-Head-Change    Column Row Layer    Max.-Flux-Residual            L2-New               L2-Old           Solver-Max-Delh
          0                 1           4             1   11     3      -0.2593125479E-03       6    1    1      -0.7664774434E-01      0.2674030656E+00      0.3544137259E-01     -0.2593125479E-03
          0                 2           2             1   11     3       0.1912200921E-04       6   15    1       0.8722726634E-02      0.2673363571E-01      0.2674030656E+00      0.1912200921E-04

    ------------------------------------------------
       NWT REQUIRED            2 OUTER ITERATIONS 
       AND A TOTAL OF          6 INNER ITERATIONS.
    ------------------------------------------------

 OUTPUT CONTROL FOR STRESS PERIOD      1   TIME STEP     1
    SAVE HEAD FOR ALL LAYERS
    SAVE BUDGET
 UBDSV1 SAVING "         STORAGE" ON UNIT7013 AT TIME STEP    1, STRESS PERIOD   1
 UBDSV2 SAVING "   CONSTANT HEAD" ON UNIT7013 AT TIME STEP    1, STRESS PERIOD   1
 UBDSV1 SAVING "FLOW RIGHT FACE " ON UNIT7013 AT TIME STEP    1, STRESS PERIOD   1
 UBDSV1 SAVING "FLOW FRONT FACE " ON UNIT7013 AT TIME STEP    1, STRESS PERIOD   1
 UBDSV1 SAVING "FLOW LOWER FACE " ON UNIT7013 AT TIME STEP    1, STRESS PERIOD   1
 UBDSV4 SAVING "  STREAM LEAKAGE" ON UNIT7013 AT TIME STEP    1, STRESS PERIOD   1



 
 
 
 
 
 
 
 
 UBDSV3 SAVING "FARM  NET  RECH." ON UNIT7013 AT TIME STEP    1, STRESS PERIOD   1
 UBDSV4 SAVING " GHOST-NODE HEAD" ON UNIT7013 AT TIME STEP    1, STRESS PERIOD   1

 HEAD WILL BE SAVED ON UNIT 2213 AT END OF TIME STEP     1, STRESS PERIOD      1
1
  FLUX ACROSS PARENT-CHILD INTERFACE AT TIME STEP  1 IN STRESS PERIOD    1
  ------------------------------------------------------------------------
 G-N FLUX        PARENT        CHILD         DIFFERENCE      % DIFFERENCE
  RATE IN:      1.3740E+05    1.3739E+05     3.1250E-02        0.0000
 RATE OUT:      3.6819E-02    3.6764E-02     5.4870E-05        0.1491
 
 SOLVING FOR HEAD 
                                                   Max.-Head-Change                        Max.-Flux-Residual
  Residual-Control   Outer-Iter.   Inner-Iter.     Column Row Layer    Max.-Head-Change    Column Row Layer    Max.-Flux-Residual            L2-New               L2-Old           Solver-Max-Delh
          0                 1          10             1    6     1       0.2269762747E+02       5   14    1       0.1986628408E+04      0.1182119969E+05      0.2673363571E-01      0.2269762747E+02
          0                 2           9             1    6     1      -0.3996950104E+01       1   10    1       0.1026452957E+04      0.3214429753E+04      0.1182119969E+05     -0.3996950104E+01
          0                 3           8             1    6     1      -0.3083138686E+00       1   10    1       0.7594379376E+02      0.2248685157E+03      0.3214429753E+04     -0.3083138686E+00
          0                 4           7             1    6     1      -0.1614791430E-01       1   10    1       0.3884806297E+01      0.1153050855E+02      0.2248685157E+03     -0.1614791430E-01
          0                 5           4             1    6     1      -0.8120424603E-03       1   10    1       0.1979942980E+00      0.5776294356E+00      0.1153050855E+02     -0.8120424603E-03
          0                 6           3             1    6     1      -0.4161227337E-04       1   10    1       0.9895293973E-02      0.3329078905E-01      0.5776294356E+00     -0.4161227337E-04

    ------------------------------------------------
       NWT REQUIRED            6 OUTER ITERATIONS 
       AND A TOTAL OF         41 INNER ITERATIONS.
    ------------------------------------------------
                                                   Max.-Head-Change                        Max.-Flux-Residual
  Residual-Control   Outer-Iter.   Inner-Iter.     Column Row Layer    Max.-Head-Change    Column Row Layer    Max.-Flux-Residual            L2-New               L2-Old           Solver-Max-Delh
          0                 1          10             1   11     2       0.1962773338E+01       1   10    1       0.9446283871E+03      0.2396632145E+04      0.3329078905E-01      0.1962773338E+01
          0                 2           8             1   11     1      -0.1688166212E+00       1   10    1      -0.1080252953E+03      0.2403255426E+03      0.2396632145E+04     -0.1688166212E+00
          0                 3           7             1   11     1      -0.8548118872E-02       1   10    1      -0.5713511314E+01      0.1321375112E+02      0.2403255426E+03     -0.8548118872E-02
          0                 4           5             1   10     1      -0.4439845700E-03       1   10    1      -0.2971293612E+00      0.7375438621E+00      0.1321375112E+02     -0.4439845700E-03
          0                 5           3             1   11     2      -0.2170957962E-04       1   10    1      -0.1417913579E-01      0.4416406350E-01      0.7375438621E+00     -0.2170957962E-04

    ------------------------------------------------
       NWT REQUIRED            5 OUTER ITERATIONS 
       AND A TOTAL OF         33 INNER ITERATIONS.
    ------------------------------------------------
                                                   Max.-Head-Change                        Max.-Flux-Residual
  Residual-Control   Outer-Iter.   Inner-Iter.     Column Row Layer    Max.-Head-Change    Column Row Layer    Max.-Flux-Residual            L2-New               L2-Old           Solver-Max-Delh
          0                 1          10             1   11     1       0.3031401313E+01       1   10    1       0.1457868182E+04      0.4382013212E+04      0.4416406350E-01      0.3031401313E+01
          0                 2           9             1   11     1      -0.2681168937E+00       1   11    1      -0.1672869938E+03      0.4352337142E+03      0.4382013212E+04     -0.2681168937E+00
          0                 3           7             1   11     1      -0.1483023117E-01       1   10    1      -0.9795915248E+01      0.2524036165E+02      0.4352337142E+03     -0.1483023117E-01
          0                 4           5             1   11     1      -0.8050353674E-03       1   10    1      -0.5528799455E+00      0.1456197417E+01      0.2524036165E+02     -0.8050353674E-03
          0                 5           3             1   10     1      -0.4396030859E-04       1   10    1      -0.3107827622E-01      0.8278177364E-01      0.1456197417E+01     -0.4396030859E-04

    ------------------------------------------------
       NWT REQUIRED            5 OUTER ITERATIONS 
       AND A TOTAL OF         34 INNER ITERATIONS.
    ------------------------------------------------
                                                   Max.-Head-Change                        Max.-Flux-Residual
  Residual-Control   Outer-Iter.   Inner-Iter.     Column Row Layer    Max.-Head-Change    Column Row Layer    Max.-Flux-Residual            L2-New               L2-Old           Solver-Max-Delh
          0                 1          10             1   11     1       0.1960064235E+01       1   15    1       0.9931529925E+03      0.3283565457E+04      0.8278177364E-01      0.1960064235E+01
          0                 2           9             1   11     1      -0.1624737310E+00       1   12    1      -0.1010799267E+03      0.3054110444E+03      0.3283565457E+04     -0.1624737310E+00
          0                 3           7             1   11     1      -0.9336547363E-02       1   10    1      -0.5631183211E+01      0.1824375465E+02      0.3054110444E+03     -0.9336547363E-02
          0                 4           5             1   11     1      -0.5318167753E-03       1   10    1      -0.3362961971E+00      0.1094953919E+01      0.1824375465E+02     -0.5318167753E-03
          0                 5           3             1   11     1      -0.3145354523E-04       1   10    1      -0.2035507676E-01      0.6557031822E-01      0.1094953919E+01     -0.3145354523E-04

    ------------------------------------------------
       NWT REQUIRED            5 OUTER ITERATIONS 
       AND A TOTAL OF         34 INNER ITERATIONS.
    ------------------------------------------------
                                                   Max.-Head-Change                        Max.-Flux-Residual
  Residual-Control   Outer-Iter.   Inner-Iter.     Column Row Layer    Max.-Head-Change    Column Row Layer    Max.-Flux-Residual            L2-New               L2-Old           Solver-Max-Delh
          0                 1          10             1   11     1       0.8586386329E+00       1   15    1       0.5539896070E+03      0.1860479166E+04      0.6557031822E-01      0.8586386329E+00
          0                 2           8             1   12     1      -0.6790135758E-01       1   15    1      -0.5136374274E+02      0.1653676886E+03      0.1860479166E+04     -0.6790135758E-01
          0                 3           7             1   11     1      -0.3949029469E-02       1   15    1      -0.2916851489E+01      0.1006239027E+02      0.1653676886E+03     -0.3949029469E-02
          0                 4           5             6    8     1      -0.2385043829E-03       1   15    1      -0.1734258745E+00      0.6156200895E+00      0.1006239027E+02     -0.2385043829E-03
          0                 5           3             6    8     1      -0.1978615406E-04       1   15    1      -0.1484489714E-01      0.4551130295E-01      0.6156200895E+00     -0.1978615406E-04

    ------------------------------------------------
       NWT REQUIRED            5 OUTER ITERATIONS 
       AND A TOTAL OF         33 INNER ITERATIONS.
    ------------------------------------------------
                                                   Max.-Head-Change                        Max.-Flux-Residual
  Residual-Control   Outer-Iter.   Inner-Iter.     Column Row Layer    Max.-Head-Change    Column Row Layer    Max.-Flux-Residual            L2-New               L2-Old           Solver-Max-Delh
          0                 1           9             6   15     1       0.4129507858E+00       6   15    1       0.3104089688E+03      0.9175604057E+03      0.4551130295E-01      0.4129507858E+00
          0                 2           8             6   15     1      -0.3238451096E-01       6   15    1      -0.2886542811E+02      0.8045181687E+02      0.9175604057E+03     -0.3238451096E-01
          0                 3           6             6   15     1      -0.1876384585E-02       6   15    1      -0.1625328062E+01      0.4920696717E+01      0.8045181687E+02     -0.1876384585E-02
          0                 4           4             6   10     1      -0.1218418674E-03       6   15    1      -0.9485740180E-01      0.3040380570E+00      0.4920696717E+01     -0.1218418674E-03
          0                 5           3             6    1     1      -0.1544608737E-04       6    1    1      -0.1598857361E-01      0.3282638109E-01      0.3040380570E+00     -0.1544608737E-04

    ------------------------------------------------
       NWT REQUIRED            5 OUTER ITERATIONS 
       AND A TOTAL OF         30 INNER ITERATIONS.
    ------------------------------------------------
                                                   Max.-Head-Change                        Max.-Flux-Residual
  Residual-Control   Outer-Iter.   Inner-Iter.     Column Row Layer    Max.-Head-Change    Column Row Layer    Max.-Flux-Residual            L2-New               L2-Old           Solver-Max-Delh
          0                 1           9             6   15     1       0.2002357069E+00       6   15    1       0.1557393619E+03      0.4129744729E+03      0.3282638109E-01      0.2002357069E+00
          0                 2           7             6   15     1      -0.1575006487E-01       6   15    1      -0.1447427460E+02      0.3636216927E+02      0.4129744729E+03     -0.1575006487E-01
          0                 3           5             6   15     1      -0.9040028410E-03       6   15    1      -0.8065372222E+00      0.2201011359E+01      0.3636216927E+02     -0.9040028410E-03
          0                 4           4             6   15     1      -0.5587924083E-04       6   15    1      -0.5217237168E-01      0.1367790195E+00      0.2201011359E+01     -0.5587924083E-04

    ------------------------------------------------
       NWT REQUIRED            4 OUTER ITERATIONS 
       AND A TOTAL OF         25 INNER ITERATIONS.
    ------------------------------------------------
                                                   Max.-Head-Change                        Max.-Flux-Residual
  Residual-Control   Outer-Iter.   Inner-Iter.     Column Row Layer    Max.-Head-Change    Column Row Layer    Max.-Flux-Residual            L2-New               L2-Old           Solver-Max-Delh
          0                 1           8             6   15     1       0.8459132103E-01       6   15    1       0.6792603808E+02      0.1661315125E+03      0.1367790195E+00      0.8459132103E-01
          0                 2           7             6   15     1      -0.6677762507E-02       6   15    1      -0.6321208385E+01      0.1486414806E+02      0.1661315125E+03     -0.6677762507E-02
          0                 3           5             6   15     1      -0.3802413952E-03       6   15    1      -0.3517379525E+00      0.8811331252E+00      0.1486414806E+02     -0.3802413952E-03
          0                 4           3             5   15     1      -0.2391593197E-04       3   15    1      -0.1780602580E-01      0.5822231052E-01      0.8811331252E+00     -0.2391593197E-04

    ------------------------------------------------
       NWT REQUIRED            4 OUTER ITERATIONS 
       AND A TOTAL OF         23 INNER ITERATIONS.
    ------------------------------------------------
                                                   Max.-Head-Change                        Max.-Flux-Residual
  Residual-Control   Outer-Iter.   Inner-Iter.     Column Row Layer    Max.-Head-Change    Column Row Layer    Max.-Flux-Residual            L2-New               L2-Old           Solver-Max-Delh
          0                 1           7             6   15     1       0.2932752737E-01       6   15    1       0.2437909217E+02      0.5580185028E+02      0.5822231052E-01      0.2932752737E-01
          0                 2           6             6   15     1      -0.2317960936E-02       6   15    1      -0.2261317328E+01      0.5107568294E+01      0.5580185028E+02     -0.2317960936E-02
          0                 3           4             6   15     1      -0.1374206759E-03       6   15    1      -0.1354789828E+00      0.2976084638E+00      0.5107568294E+01     -0.1374206759E-03
          0                 4           2             2   15     1      -0.7238788581E-05       2   15    1      -0.9068407177E-02      0.1966745019E-01      0.2976084638E+00     -0.7238788581E-05

    ------------------------------------------------
       NWT REQUIRED            4 OUTER ITERATIONS 
       AND A TOTAL OF         19 INNER ITERATIONS.
    ------------------------------------------------
                                                   Max.-Head-Change                        Max.-Flux-Residual
  Residual-Control   Outer-Iter.   Inner-Iter.     Column Row Layer    Max.-Head-Change    Column Row Layer    Max.-Flux-Residual            L2-New               L2-Old           Solver-Max-Delh
          0                 1           6             1   13     3       0.9779796837E-02       1   15    1       0.6256822029E+01      0.1821570145E+02      0.1966745019E-01      0.9779796837E-02
          0                 2           5             1   13     3      -0.8479756055E-03       1   15    1      -0.5762930969E+00      0.1669565890E+01      0.1821570145E+02     -0.8479756055E-03
          0                 3           3             1   13     3      -0.4155892398E-04       1   15    1      -0.4217545257E-01      0.1003082198E+00      0.1669565890E+01     -0.4155892398E-04

    ------------------------------------------------
       NWT REQUIRED            3 OUTER ITERATIONS 
       AND A TOTAL OF         14 INNER ITERATIONS.
    ------------------------------------------------
                                                   Max.-Head-Change                        Max.-Flux-Residual
  Residual-Control   Outer-Iter.   Inner-Iter.     Column Row Layer    Max.-Head-Change    Column Row Layer    Max.-Flux-Residual            L2-New               L2-Old           Solver-Max-Delh
          0                 1           6             6    8     1      -0.7751600376E-02       6    8    1      -0.3877295914E+01      0.1248676354E+02      0.1003082198E+00     -0.7751600376E-02
          0                 2           5             6    8     2       0.6153261092E-03       6    9    1       0.3431984193E+00      0.1097252435E+01      0.1248676354E+02      0.6153261092E-03
          0                 3           3             6    7     1       0.4018095241E-04       6    7    1       0.2500336806E-01      0.6841206257E-01      0.1097252435E+01      0.4018095241E-04

    ------------------------------------------------
       NWT REQUIRED            3 OUTER ITERATIONS 
       AND A TOTAL OF         14 INNER ITERATIONS.
    ------------------------------------------------
                                                   Max.-Head-Change                        Max.-Flux-Residual
  Residual-Control   Outer-Iter.   Inner-Iter.     Column Row Layer    Max.-Head-Change    Column Row Layer    Max.-Flux-Residual            L2-New               L2-Old           Solver-Max-Delh
          0                 1           6             6    7     1      -0.5046692483E-02       6    7    1      -0.2413135766E+01      0.8935381817E+01      0.6841206257E-01     -0.5046692483E-02
          0                 2           5             6    7     2       0.4071430146E-03       6    9    1       0.2116565441E+00      0.7770311642E+00      0.8935381817E+01      0.4071430146E-03
          0                 3           3             6    8     1       0.2334027801E-04       6    1    1       0.1591062511E-01      0.5066383421E-01      0.7770311642E+00      0.2334027801E-04

    ------------------------------------------------
       NWT REQUIRED            3 OUTER ITERATIONS 
       AND A TOTAL OF         14 INNER ITERATIONS.
    ------------------------------------------------
                                                   Max.-Head-Change                        Max.-Flux-Residual
  Residual-Control   Outer-Iter.   Inner-Iter.     Column Row Layer    Max.-Head-Change    Column Row Layer    Max.-Flux-Residual            L2-New               L2-Old           Solver-Max-Delh
          0                 1           6             6    7     1      -0.2617301327E-02       6   15    1      -0.1500167918E+01      0.5186301092E+01      0.5066383421E-01     -0.2617301327E-02
          0                 2           4             6    7     2       0.2127632799E-03       6   15    1       0.1416880841E+00      0.4501718608E+00      0.5186301092E+01      0.2127632799E-03
          0                 3           3             6    8     1       0.1800255203E-04       6    7    1       0.1053428600E-01      0.3775913020E-01      0.4501718608E+00      0.1800255203E-04

    ------------------------------------------------
       NWT REQUIRED            3 OUTER ITERATIONS 
       AND A TOTAL OF         13 INNER ITERATIONS.
    ------------------------------------------------
                                                   Max.-Head-Change                        Max.-Flux-Residual
  Residual-Control   Outer-Iter.   Inner-Iter.     Column Row Layer    Max.-Head-Change    Column Row Layer    Max.-Flux-Residual            L2-New               L2-Old           Solver-Max-Delh
          0                 1           5             5   15     1      -0.1221002498E-02       6   15    1      -0.9317153581E+00      0.2645050560E+01      0.3775913020E-01     -0.1221002498E-02
          0                 2           4             5   15     1       0.9764229142E-04       6   15    1       0.8870807616E-01      0.2327654695E+00      0.2645050560E+01      0.9764229142E-04

    ------------------------------------------------
       NWT REQUIRED            2 OUTER ITERATIONS 
       AND A TOTAL OF          9 INNER ITERATIONS.
    ------------------------------------------------
                                                   Max.-Head-Change                        Max.-Flux-Residual
  Residual-Control   Outer-Iter.   Inner-Iter.     Column Row Layer    Max.-Head-Change    Column Row Layer    Max.-Flux-Residual            L2-New               L2-Old           Solver-Max-Delh
          0                 1           5             2   15     2      -0.6725175065E-03       1   15    1      -0.4881029003E+00      0.1284966900E+01      0.2327654695E+00     -0.6725175065E-03
          0                 2           4             1   15     2       0.5681444407E-04       6   15    1       0.4588707548E-01      0.1120319095E+00      0.1284966900E+01      0.5681444407E-04

    ------------------------------------------------
       NWT REQUIRED            2 OUTER ITERATIONS 
       AND A TOTAL OF          9 INNER ITERATIONS.
    ------------------------------------------------
                                                   Max.-Head-Change                        Max.-Flux-Residual
  Residual-Control   Outer-Iter.   Inner-Iter.     Column Row Layer    Max.-Head-Change    Column Row Layer    Max.-Flux-Residual            L2-New               L2-Old           Solver-Max-Delh
          0                 1           5             1   12     2      -0.4201924336E-03       1   15    1      -0.2810501987E+00      0.6146975725E+00      0.1120319095E+00     -0.4201924336E-03
          0                 2           3             1   12     2       0.3624302599E-04       6   15    1       0.2980019833E-01      0.6508877708E-01      0.6146975725E+00      0.3624302599E-04

    ------------------------------------------------
       NWT REQUIRED            2 OUTER ITERATIONS 
       AND A TOTAL OF          8 INNER ITERATIONS.
    ------------------------------------------------
                                                   Max.-Head-Change                        Max.-Flux-Residual
  Residual-Control   Outer-Iter.   Inner-Iter.     Column Row Layer    Max.-Head-Change    Column Row Layer    Max.-Flux-Residual            L2-New               L2-Old           Solver-Max-Delh
          0                 1           4             1   13     2      -0.1937927632E-03       1   15    1      -0.1431842981E+00      0.2905666465E+00      0.6508877708E-01     -0.1937927632E-03
          0                 2           2             1   15     1       0.1834170136E-04       1   15    1       0.2360079536E-01      0.3589933490E-01      0.2905666465E+00      0.1834170136E-04

    ------------------------------------------------
       NWT REQUIRED            2 OUTER ITERATIONS 
       AND A TOTAL OF          6 INNER ITERATIONS.
    ------------------------------------------------

 OUTPUT CONTROL FOR STRESS PERIOD      1   TIME STEP     2
    SAVE BUDGET
 UBDSV1 SAVING "         STORAGE" ON UNIT7013 AT TIME STEP    2, STRESS PERIOD   1
 UBDSV2 SAVING "   CONSTANT HEAD" ON UNIT7013 AT TIME STEP    2, STRESS PERIOD   1
 UBDSV1 SAVING "FLOW RIGHT FACE " ON UNIT7013 AT TIME STEP    2, STRESS PERIOD   1
 UBDSV1 SAVING "FLOW FRONT FACE " ON UNIT7013 AT TIME STEP    2, STRESS PERIOD   1
 UBDSV1 SAVING "FLOW LOWER FACE " ON UNIT7013 AT TIME STEP    2, STRESS PERIOD   1
 UBDSV4 SAVING "  STREAM LEAKAGE" ON UNIT7013 AT TIME STEP    2, STRESS PERIOD   1



 
 
 
 
 
 
 
 
 UBDSV3 SAVING "FARM  NET  RECH." ON UNIT7013 AT TIME STEP    2, STRESS PERIOD   1
 UBDSV4 SAVING " GHOST-NODE HEAD" ON UNIT7013 AT TIME STEP    2, STRESS PERIOD   1
1
  VOLUMETRIC BUDGET FOR ENTIRE MODEL AT END OF TIME STEP    2 IN STRESS PERIOD      1
  ------------------------------------------------------------------------------

     CUMULATIVE VOLUMES      L**3       RATES FOR THIS TIME STEP      L**3/T
     ------------------                 ------------------------

           IN:                                      IN:
           ---                                      ---
             STORAGE =       62750.4453               STORAGE =         345.6096
       CONSTANT HEAD =           0.0000         CONSTANT HEAD =           0.0000
      STREAM LEAKAGE =       69623.3047        STREAM LEAKAGE =        2288.7346
          FARM WELLS =           0.0000            FARM WELLS =           0.0000
    FARM  NET  RECH. =       24692.9141      FARM  NET  RECH. =         811.7328
     GHOST-NODE HEAD =     2814867.7500       GHOST-NODE HEAD =       47671.9453

            TOTAL IN =     2971934.5000              TOTAL IN =       51118.0234

          OUT:                                     OUT:
          ----                                     ----
             STORAGE =     2971933.5000               STORAGE =       51118.0195
       CONSTANT HEAD =           0.0000         CONSTANT HEAD =           0.0000
      STREAM LEAKAGE =           0.0000        STREAM LEAKAGE =           0.0000
          FARM WELLS =           0.0000            FARM WELLS =           0.0000
    FARM  NET  RECH. =           0.0000      FARM  NET  RECH. =           0.0000
     GHOST-NODE HEAD =           0.5592       GHOST-NODE HEAD =           0.0000

           TOTAL OUT =     2971934.0000             TOTAL OUT =       51118.0195

            IN - OUT =           0.5000              IN - OUT =       3.9062E-03

 PERCENT DISCREPANCY =           0.00     PERCENT DISCREPANCY =           0.00






          TIME SUMMARY AT END OF TIME STEP     2 IN STRESS PERIOD      1
                    SECONDS     MINUTES      HOURS       DAYS        YEARS
                    -----------------------------------------------------------
   TIME STEP LENGTH 1.31414E+06  21902.      365.04      15.210     4.16427E-02
 STRESS PERIOD TIME 2.62829E+06  43805.      730.08      30.420     8.32854E-02
         TOTAL TIME 2.62829E+06  43805.      730.08      30.420     8.32854E-02
1
1
  FLUX ACROSS PARENT-CHILD INTERFACE AT TIME STEP  2 IN STRESS PERIOD    1
  ------------------------------------------------------------------------
 G-N FLUX        PARENT        CHILD         DIFFERENCE      % DIFFERENCE
  RATE IN:      4.7673E+04    4.7672E+04     8.2031E-01        0.0017
 RATE OUT:      0.0000E+00    0.0000E+00     0.0000E+00        0.0000
1
                            STRESS PERIOD NO.      2, LENGTH =   30.42000    
                            -----------------------------------------------

                              NUMBER OF TIME STEPS =     2

                               MULTIPLIER FOR DELT =     1.000

                            INITIAL TIME STEP SIZE =   15.21000    

 REUSING STREAM SEGMENT DATA FROM LAST STRESS PERIOD
 WELL NO. LAYER    ROW    COL  F-WELL ID    FARM ID         QMAX         QMAXRESET       LGRGRID         
 --------------------------------------------------------------------------------------------------------
       1      1      2      2          5          2      2.0000E+00     0    0
       2      1      5      5          6          2      1.0000E+00     0    0

 Parameter:  WELLS1
 WELL NO. LAYER    ROW    COL  F-WELL ID    FARM ID         QMAX         QMAXRESET       LGRGRID         
 --------------------------------------------------------------------------------------------------------
       3      1      2      2          5          2      2.0000E+03              0              0
       4      1      5      5          6          2      1.0000E+03              0              0

 NUMBER OF ACTIVE FARM WELLS:        4

 FARM-ID  NUMBER OF WELLS PER FARM  TOTAL MAX.CAPACITY PER FARM
       1                         0                       0.0000
       2                         4                    3003.0000
       3                         0                       0.0000
       4                         0                       0.0000
       5                         0                       0.0000
       6                         0                       0.0000
       7                         0                       0.0000
       8                         0                       0.0000

Transpiratory and Evaporative Fractions of Crop Consumptive Use
    % Transpiration % Evap. for Precip. % Evap. for Irrig.
    3          0.845          0.155          0.155
    5          0.783          0.217          0.000

FRACTIONS OF IN-EFFICIENT LOSSES TO SW-RUNOFF FROM 
     PRECIPITATION:  IRRIGATION:
    3          0.600          0.500
    5          0.850          0.000
 
 SOLVING FOR HEAD 
                                                   Max.-Head-Change                        Max.-Flux-Residual
  Residual-Control   Outer-Iter.   Inner-Iter.     Column Row Layer    Max.-Head-Change    Column Row Layer    Max.-Flux-Residual            L2-New               L2-Old           Solver-Max-Delh
          0                 1          10             1    6     1       0.1135455015E+02       1   14    1       0.1012193856E+04      0.5894736718E+04      0.3589933490E-01      0.1135455015E+02
          0                 2           9             1    6     1      -0.1425082959E+01       1    6    1      -0.2105840246E+03      0.8463783834E+03      0.5894736718E+04     -0.1425082959E+01
          0                 3           8             1    6     1      -0.8245860315E-01       1    6    1      -0.1355238437E+02      0.4781361440E+02      0.8463783834E+03     -0.8245860315E-01
          0                 4           6             1    6     1      -0.4181415568E-02       1    6    1      -0.6894687048E+00      0.2403125096E+01      0.4781361440E+02     -0.4181415568E-02
          0                 5           4             1    6     1      -0.2105473633E-03       1    6    1      -0.3451859934E-01      0.1209226959E+00      0.2403125096E+01     -0.2105473633E-03
          0                 6           2             1    6     1      -0.1000031241E-04       3   15    1      -0.6827583362E-02      0.1622366723E-01      0.1209226959E+00     -0.1000031241E-04

    ------------------------------------------------
       NWT REQUIRED            6 OUTER ITERATIONS 
       AND A TOTAL OF         39 INNER ITERATIONS.
    ------------------------------------------------
                                                   Max.-Head-Change                        Max.-Flux-Residual
  Residual-Control   Outer-Iter.   Inner-Iter.     Column Row Layer    Max.-Head-Change    Column Row Layer    Max.-Flux-Residual            L2-New               L2-Old           Solver-Max-Delh
          0                 1          10             1   11     1       0.1686054013E+01       1   10    1       0.9150427398E+03      0.2562440856E+04      0.1622366723E-01      0.1686054013E+01
          0                 2           9             1   11     1      -0.1496597901E+00       1   10    1      -0.9871400543E+02      0.2613077893E+03      0.2562440856E+04     -0.1496597901E+00
          0                 3           7             1   11     1      -0.7679858195E-02       1   10    1      -0.5229948510E+01      0.1372049518E+02      0.2613077893E+03     -0.7679858195E-02
          0                 4           5             1   11     1      -0.3914290416E-03       1   10    1      -0.2762254975E+00      0.7192338497E+00      0.1372049518E+02     -0.3914290416E-03
          0                 5           3             1   11     1      -0.2002278172E-04       1   10    1      -0.1452614635E-01      0.4515978770E-01      0.7192338497E+00     -0.2002278172E-04

    ------------------------------------------------
       NWT REQUIRED            5 OUTER ITERATIONS 
       AND A TOTAL OF         34 INNER ITERATIONS.
    ------------------------------------------------
                                                   Max.-Head-Change                        Max.-Flux-Residual
  Residual-Control   Outer-Iter.   Inner-Iter.     Column Row Layer    Max.-Head-Change    Column Row Layer    Max.-Flux-Residual            L2-New               L2-Old           Solver-Max-Delh
          0                 1          10             1   11     1       0.1230606105E+01       1   10    1       0.6454496271E+03      0.2117029476E+04      0.4515978770E-01      0.1230606105E+01
          0                 2           9             1   11     1      -0.1061265165E+00       1   12    1      -0.6864900048E+02      0.2094485778E+03      0.2117029476E+04     -0.1061265165E+00
          0                 3           7             1   11     1      -0.5579834694E-02       1   10    1      -0.3616948083E+01      0.1122589238E+02      0.2094485778E+03     -0.5579834694E-02
          0                 4           5             1   11     1      -0.2883022366E-03       1   10    1      -0.1932667814E+00      0.5988098582E+00      0.1122589238E+02     -0.2883022366E-03
          0                 5           3             1   10     1      -0.1474692613E-04       1   15    1      -0.1328223420E-01      0.3461203530E-01      0.5988098582E+00     -0.1474692613E-04

    ------------------------------------------------
       NWT REQUIRED            5 OUTER ITERATIONS 
       AND A TOTAL OF         34 INNER ITERATIONS.
    ------------------------------------------------
                                                   Max.-Head-Change                        Max.-Flux-Residual
  Residual-Control   Outer-Iter.   Inner-Iter.     Column Row Layer    Max.-Head-Change    Column Row Layer    Max.-Flux-Residual            L2-New               L2-Old           Solver-Max-Delh
          0                 1           9             1   11     1       0.5850356143E+00       1   15    1       0.3602373818E+03      0.1259235458E+04      0.3461203530E-01      0.5850356143E+00
          0                 2           8             1   11     1      -0.4909915595E-01       1   15    1      -0.3503214002E+02      0.1214378090E+03      0.1259235458E+04     -0.4909915595E-01
          0                 3           6             1   11     1      -0.2610129355E-02       1   15    1      -0.1854121925E+01      0.6576707777E+01      0.1214378090E+03     -0.2610129355E-02
          0                 4           4             1    1     1      -0.1380093035E-03       1   15    1      -0.1002906134E+00      0.3569986840E+00      0.6576707777E+01     -0.1380093035E-03
          0                 5           3             6    7     1      -0.1290233381E-04       1   12    1      -0.8616908919E-02      0.2958790582E-01      0.3569986840E+00     -0.1290233381E-04

    ------------------------------------------------
       NWT REQUIRED            5 OUTER ITERATIONS 
       AND A TOTAL OF         30 INNER ITERATIONS.
    ------------------------------------------------
                                                   Max.-Head-Change                        Max.-Flux-Residual
  Residual-Control   Outer-Iter.   Inner-Iter.     Column Row Layer    Max.-Head-Change    Column Row Layer    Max.-Flux-Residual            L2-New               L2-Old           Solver-Max-Delh
          0                 1           9             1    1     2       0.2994555411E+00       6    1    1       0.1983165311E+03      0.6424756918E+03      0.2958790582E-01      0.2994555411E+00
          0                 2           8             1    1     2      -0.2535098226E-01       6    1    1      -0.1897502150E+02      0.6130026046E+02      0.6424756918E+03     -0.2535098226E-01
          0                 3           6             1    1     2      -0.1307287870E-02       6    1    1      -0.1020682579E+01      0.3337716295E+01      0.6130026046E+02     -0.1307287870E-02
          0                 4           4             6    7     1      -0.7282447675E-04       6    1    1      -0.5744848459E-01      0.1822702852E+00      0.3337716295E+01     -0.7282447675E-04

    ------------------------------------------------
       NWT REQUIRED            4 OUTER ITERATIONS 
       AND A TOTAL OF         27 INNER ITERATIONS.
    ------------------------------------------------
                                                   Max.-Head-Change                        Max.-Flux-Residual
  Residual-Control   Outer-Iter.   Inner-Iter.     Column Row Layer    Max.-Head-Change    Column Row Layer    Max.-Flux-Residual            L2-New               L2-Old           Solver-Max-Delh
          0                 1           9             1    1     2       0.1363393418E+00       6   15    1       0.1002323681E+03      0.2992644321E+03      0.1822702852E+00      0.1363393418E+00
          0                 2           7             1    1     2      -0.1154431329E-01       6   15    1      -0.9744015855E+01      0.2849719543E+02      0.2992644321E+03     -0.1154431329E-01
          0                 3           5             6    1     1      -0.6007497469E-03       6   15    1      -0.5155424474E+00      0.1547527440E+01      0.2849719543E+02     -0.6007497469E-03
          0                 4           4             6    6     1      -0.3588873838E-04       6    1    1      -0.2886740369E-01      0.9142825209E-01      0.1547527440E+01     -0.3588873838E-04

    ------------------------------------------------
       NWT REQUIRED            4 OUTER ITERATIONS 
       AND A TOTAL OF         25 INNER ITERATIONS.
    ------------------------------------------------
                                                   Max.-Head-Change                        Max.-Flux-Residual
  Residual-Control   Outer-Iter.   Inner-Iter.     Column Row Layer    Max.-Head-Change    Column Row Layer    Max.-Flux-Residual            L2-New               L2-Old           Solver-Max-Delh
          0                 1           8             6    1     1       0.5677977464E-01       6   15    1       0.4568946288E+02      0.1251510376E+03      0.9142825209E-01      0.5677977464E-01
          0                 2           7             6    1     2      -0.4762995285E-02       6   15    1      -0.4435984574E+01      0.1195239638E+02      0.1251510376E+03     -0.4762995285E-02
          0                 3           5             6    1     1      -0.2525027476E-03       6   15    1      -0.2363042051E+00      0.6483159917E+00      0.1195239638E+02     -0.2525027476E-03
          0                 4           3             6    1     1      -0.1659628859E-04       6    1    1      -0.1510521997E-01      0.4045813514E-01      0.6483159917E+00     -0.1659628859E-04

    ------------------------------------------------
       NWT REQUIRED            4 OUTER ITERATIONS 
       AND A TOTAL OF         23 INNER ITERATIONS.
    ------------------------------------------------
                                                   Max.-Head-Change                        Max.-Flux-Residual
  Residual-Control   Outer-Iter.   Inner-Iter.     Column Row Layer    Max.-Head-Change    Column Row Layer    Max.-Flux-Residual            L2-New               L2-Old           Solver-Max-Delh
          0                 1           7             5   15     2       0.2113127547E-01       6   15    1       0.1737881737E+02      0.4320100131E+02      0.4045813514E-01      0.2113127547E-01
          0                 2           5             5   15     2      -0.1810808921E-02       6   15    1      -0.1684238478E+01      0.4152836806E+01      0.4320100131E+02     -0.1810808921E-02
          0                 3           4             5   15     2      -0.9177192294E-04       6   15    1      -0.8935543709E-01      0.2242734035E+00      0.4152836806E+01     -0.9177192294E-04

    ------------------------------------------------
       NWT REQUIRED            3 OUTER ITERATIONS 
       AND A TOTAL OF         16 INNER ITERATIONS.
    ------------------------------------------------
                                                   Max.-Head-Change                        Max.-Flux-Residual
  Residual-Control   Outer-Iter.   Inner-Iter.     Column Row Layer    Max.-Head-Change    Column Row Layer    Max.-Flux-Residual            L2-New               L2-Old           Solver-Max-Delh
          0                 1           6             1   14     3       0.7155840567E-02       6   15    1       0.4766707451E+01      0.1239283028E+02      0.2242734035E+00      0.7155840567E-02
          0                 2           5             1   14     3      -0.6165037737E-03       6   15    1      -0.4698391252E+00      0.1199166966E+01      0.1239283028E+02     -0.6165037737E-03
          0                 3           3             1   14     3      -0.3047084214E-04       1   15    1      -0.3043057967E-01      0.6990967612E-01      0.1199166966E+01     -0.3047084214E-04

    ------------------------------------------------
       NWT REQUIRED            3 OUTER ITERATIONS 
       AND A TOTAL OF         14 INNER ITERATIONS.
    ------------------------------------------------
                                                   Max.-Head-Change                        Max.-Flux-Residual
  Residual-Control   Outer-Iter.   Inner-Iter.     Column Row Layer    Max.-Head-Change    Column Row Layer    Max.-Flux-Residual            L2-New               L2-Old           Solver-Max-Delh
          0                 1           6             6    8     1      -0.4661978996E-02       6    7    1      -0.2569336505E+01      0.7993254077E+01      0.6990967612E-01     -0.4661978996E-02
          0                 2           4             6    8     2       0.3900550783E-03       6    8    1       0.2491153064E+00      0.7680092169E+00      0.7993254077E+01      0.3900550783E-03
          0                 3           3             6    9     1       0.2441697570E-04       6    9    1       0.2005403570E-01      0.4697939404E-01      0.7680092169E+00      0.2441697570E-04

    ------------------------------------------------
       NWT REQUIRED            3 OUTER ITERATIONS 
       AND A TOTAL OF         13 INNER ITERATIONS.
    ------------------------------------------------
                                                   Max.-Head-Change                        Max.-Flux-Residual
  Residual-Control   Outer-Iter.   Inner-Iter.     Column Row Layer    Max.-Head-Change    Column Row Layer    Max.-Flux-Residual            L2-New               L2-Old           Solver-Max-Delh
          0                 1           6             6    7     2      -0.3442436096E-02       6    9    1      -0.1781759255E+01      0.6192521238E+01      0.4697939404E-01     -0.3442436096E-02
          0                 2           4             6    7     2       0.2922360018E-03       6    9    1       0.1750484056E+00      0.5973622423E+00      0.6192521238E+01      0.2922360018E-03
          0                 3           3             6    8     1       0.1823592526E-04       6    9    1       0.1171076088E-01      0.4076595658E-01      0.5973622423E+00      0.1823592526E-04

    ------------------------------------------------
       NWT REQUIRED            3 OUTER ITERATIONS 
       AND A TOTAL OF         13 INNER ITERATIONS.
    ------------------------------------------------
                                                   Max.-Head-Change                        Max.-Flux-Residual
  Residual-Control   Outer-Iter.   Inner-Iter.     Column Row Layer    Max.-Head-Change    Column Row Layer    Max.-Flux-Residual            L2-New               L2-Old           Solver-Max-Delh
          0                 1           6             6    7     2      -0.1976998374E-02       6    8    1      -0.9472169161E+00      0.3717255501E+01      0.4076595658E-01     -0.1976998374E-02
          0                 2           4             6    7     2       0.1662088087E-03       6    1    1       0.9461377229E-01      0.3516983130E+00      0.3717255501E+01      0.1662088087E-03
          0                 3           3             6    7     1       0.1581591096E-04       6    4    1       0.9570803959E-02      0.3234703102E-01      0.3516983130E+00      0.1581591096E-04

    ------------------------------------------------
       NWT REQUIRED            3 OUTER ITERATIONS 
       AND A TOTAL OF         13 INNER ITERATIONS.
    ------------------------------------------------
                                                   Max.-Head-Change                        Max.-Flux-Residual
  Residual-Control   Outer-Iter.   Inner-Iter.     Column Row Layer    Max.-Head-Change    Column Row Layer    Max.-Flux-Residual            L2-New               L2-Old           Solver-Max-Delh
          0                 1           5             6    6     2      -0.9370576253E-03       6   15    1      -0.5743924251E+00      0.1935868858E+01      0.3234703102E-01     -0.9370576253E-03
          0                 2           4             6    5     1       0.7910461428E-04       6   15    1       0.5894775345E-01      0.1863696839E+00      0.1935868858E+01      0.7910461428E-04

    ------------------------------------------------
       NWT REQUIRED            2 OUTER ITERATIONS 
       AND A TOTAL OF          9 INNER ITERATIONS.
    ------------------------------------------------
                                                   Max.-Head-Change                        Max.-Flux-Residual
  Residual-Control   Outer-Iter.   Inner-Iter.     Column Row Layer    Max.-Head-Change    Column Row Layer    Max.-Flux-Residual            L2-New               L2-Old           Solver-Max-Delh
          0                 1           5             1   11     2      -0.4832727699E-03       1   15    1      -0.3431373322E+00      0.9454469425E+00      0.1863696839E+00     -0.4832727699E-03
          0                 2           4             1   11     2       0.4090430275E-04       1   15    1       0.2662203863E-01      0.8316512178E-01      0.9454469425E+00      0.4090430275E-04

    ------------------------------------------------
       NWT REQUIRED            2 OUTER ITERATIONS 
       AND A TOTAL OF          9 INNER ITERATIONS.
    ------------------------------------------------
                                                   Max.-Head-Change                        Max.-Flux-Residual
  Residual-Control   Outer-Iter.   Inner-Iter.     Column Row Layer    Max.-Head-Change    Column Row Layer    Max.-Flux-Residual            L2-New               L2-Old           Solver-Max-Delh
          0                 1           4             1   12     2      -0.3034572977E-03       1   15    1      -0.2030122869E+00      0.4633736315E+00      0.8316512178E-01     -0.3034572977E-03
          0                 2           3             1   12     2       0.2558441713E-04       1   15    1       0.1913613046E-01      0.4554770239E-01      0.4633736315E+00      0.2558441713E-04

    ------------------------------------------------
       NWT REQUIRED            2 OUTER ITERATIONS 
       AND A TOTAL OF          7 INNER ITERATIONS.
    ------------------------------------------------

 OUTPUT CONTROL FOR STRESS PERIOD      2   TIME STEP     1
    SAVE BUDGET
 UBDSV1 SAVING "         STORAGE" ON UNIT7013 AT TIME STEP    1, STRESS PERIOD   2
 UBDSV2 SAVING "   CONSTANT HEAD" ON UNIT7013 AT TIME STEP    1, STRESS PERIOD   2
 UBDSV1 SAVING "FLOW RIGHT FACE " ON UNIT7013 AT TIME STEP    1, STRESS PERIOD   2
 UBDSV1 SAVING "FLOW FRONT FACE " ON UNIT7013 AT TIME STEP    1, STRESS PERIOD   2
 UBDSV1 SAVING "FLOW LOWER FACE " ON UNIT7013 AT TIME STEP    1, STRESS PERIOD   2
 UBDSV4 SAVING "  STREAM LEAKAGE" ON UNIT7013 AT TIME STEP    1, STRESS PERIOD   2



 
 
 
 
 
 
 
 
 UBDSV3 SAVING "FARM  NET  RECH." ON UNIT7013 AT TIME STEP    1, STRESS PERIOD   2
 UBDSV4 SAVING " GHOST-NODE HEAD" ON UNIT7013 AT TIME STEP    1, STRESS PERIOD   2
1
  FLUX ACROSS PARENT-CHILD INTERFACE AT TIME STEP  1 IN STRESS PERIOD    2
  ------------------------------------------------------------------------
 G-N FLUX        PARENT        CHILD         DIFFERENCE      % DIFFERENCE
  RATE IN:      2.1953E+04    2.1952E+04     8.1836E-01        0.0037
 RATE OUT:      5.0585E+01    5.0601E+01    -1.5888E-02       -0.0314
 
 SOLVING FOR HEAD 
                                                   Max.-Head-Change                        Max.-Flux-Residual
  Residual-Control   Outer-Iter.   Inner-Iter.     Column Row Layer    Max.-Head-Change    Column Row Layer    Max.-Flux-Residual            L2-New               L2-Old           Solver-Max-Delh
          0                 1          10             1    7     1       0.5644258563E+01       1   10    1       0.9603221758E+03      0.3926951106E+04      0.4554770239E-01      0.5644258563E+01
          0                 2           9             1    6     1      -0.5806074426E+00       1   12    1      -0.8149915392E+02      0.3962880177E+03      0.3926951106E+04     -0.5806074426E+00
          0                 3           7             1    6     1      -0.3065997885E-01       1   15    1      -0.3901163636E+01      0.2024042232E+02      0.3962880177E+03     -0.3065997885E-01
          0                 4           5             1    6     1      -0.1543064311E-02       1   15    1      -0.1973425805E+00      0.1020975254E+01      0.2024042232E+02     -0.1543064311E-02
          0                 5           3             1    6     1      -0.7782680893E-04       1   15    1      -0.2078846534E-01      0.6098261575E-01      0.1020975254E+01     -0.7782680893E-04

    ------------------------------------------------
       NWT REQUIRED            5 OUTER ITERATIONS 
       AND A TOTAL OF         34 INNER ITERATIONS.
    ------------------------------------------------
                                                   Max.-Head-Change                        Max.-Flux-Residual
  Residual-Control   Outer-Iter.   Inner-Iter.     Column Row Layer    Max.-Head-Change    Column Row Layer    Max.-Flux-Residual            L2-New               L2-Old           Solver-Max-Delh
          0                 1          10             1   11     1       0.1142119749E+01       1   10    1       0.6447801993E+03      0.1980521057E+04      0.6098261575E-01      0.1142119749E+01
          0                 2           9             1   11     1      -0.9974786469E-01       1   12    1      -0.6768260371E+02      0.2005285495E+03      0.1980521057E+04     -0.9974786469E-01
          0                 3           7             1   11     1      -0.5113244398E-02       1   10    1      -0.3534819062E+01      0.1032595529E+02      0.2005285495E+03     -0.5113244398E-02
          0                 4           5             1   11     1      -0.2606445287E-03       1   10    1      -0.1841158825E+00      0.5263983992E+00      0.1032595529E+02     -0.2606445287E-03
          0                 5           3             1   11     1      -0.1302088180E-04       6   15    1      -0.1426552440E-01      0.3406762016E-01      0.5263983992E+00     -0.1302088180E-04

    ------------------------------------------------
       NWT REQUIRED            5 OUTER ITERATIONS 
       AND A TOTAL OF         34 INNER ITERATIONS.
    ------------------------------------------------
                                                   Max.-Head-Change                        Max.-Flux-Residual
  Residual-Control   Outer-Iter.   Inner-Iter.     Column Row Layer    Max.-Head-Change    Column Row Layer    Max.-Flux-Residual            L2-New               L2-Old           Solver-Max-Delh
          0                 1           9             1   11     1       0.6652206677E+00       1   15    1       0.3927100217E+03      0.1303068076E+04      0.3406762016E-01      0.6652206677E+00
          0                 2           8             1   11     1      -0.5700897279E-01       1   15    1      -0.3883182791E+02      0.1295233995E+03      0.1303068076E+04     -0.5700897279E-01
          0                 3           6             1   11     1      -0.2949629789E-02       1   15    1      -0.1996472747E+01      0.6711711975E+01      0.1295233995E+03     -0.2949629789E-02
          0                 4           4             1   11     1      -0.1529845914E-03       1   15    1      -0.1013943751E+00      0.3474176238E+00      0.6711711975E+01     -0.1529845914E-03
          0                 5           3             1    1     1      -0.1249356623E-04       1   10    1      -0.8368737006E-02      0.2721783501E-01      0.3474176238E+00     -0.1249356623E-04

    ------------------------------------------------
       NWT REQUIRED            5 OUTER ITERATIONS 
       AND A TOTAL OF         30 INNER ITERATIONS.
    ------------------------------------------------
                                                   Max.-Head-Change                        Max.-Flux-Residual
  Residual-Control   Outer-Iter.   Inner-Iter.     Column Row Layer    Max.-Head-Change    Column Row Layer    Max.-Flux-Residual            L2-New               L2-Old           Solver-Max-Delh
          0                 1           9             1    1     2       0.3048952394E+00       6    1    1       0.2030879968E+03      0.6925735247E+03      0.2721783501E-01      0.3048952394E+00
          0                 2           8             6    8     2      -0.2614603345E-01       6    1    1      -0.1993422850E+02      0.6813209424E+02      0.6925735247E+03     -0.2614603345E-01
          0                 3           6             1    1     2      -0.1323479675E-02       6    1    1      -0.1028027094E+01      0.3538094072E+01      0.6813209424E+02     -0.1323479675E-02
          0                 4           4             2    1     1      -0.6982986995E-04       6    1    1      -0.5795724189E-01      0.1827586017E+00      0.3538094072E+01     -0.6982986995E-04

    ------------------------------------------------
       NWT REQUIRED            4 OUTER ITERATIONS 
       AND A TOTAL OF         27 INNER ITERATIONS.
    ------------------------------------------------
                                                   Max.-Head-Change                        Max.-Flux-Residual
  Residual-Control   Outer-Iter.   Inner-Iter.     Column Row Layer    Max.-Head-Change    Column Row Layer    Max.-Flux-Residual            L2-New               L2-Old           Solver-Max-Delh
          0                 1           9             1    1     2       0.1527079746E+00       6    1    1       0.1078839353E+03      0.3293480386E+03      0.1827586017E+00      0.1527079746E+00
          0                 2           7             1    1     2      -0.1306605464E-01       6    1    1      -0.1057920796E+02      0.3230145796E+02      0.3293480386E+03     -0.1306605464E-01
          0                 3           5             1    1     2      -0.6631295342E-03       6    1    1      -0.5492286815E+00      0.1678910890E+01      0.3230145796E+02     -0.6631295342E-03
          0                 4           4             1    1     2      -0.3384624938E-04       6    1    1      -0.2690907684E-01      0.8678322281E-01      0.1678910890E+01     -0.3384624938E-04

    ------------------------------------------------
       NWT REQUIRED            4 OUTER ITERATIONS 
       AND A TOTAL OF         25 INNER ITERATIONS.
    ------------------------------------------------
                                                   Max.-Head-Change                        Max.-Flux-Residual
  Residual-Control   Outer-Iter.   Inner-Iter.     Column Row Layer    Max.-Head-Change    Column Row Layer    Max.-Flux-Residual            L2-New               L2-Old           Solver-Max-Delh
          0                 1           8             6    1     1       0.6551803073E-01       6    1    1       0.4981162865E+02      0.1443316373E+03      0.8678322281E-01      0.6551803073E-01
          0                 2           7             6    1     2      -0.5577651239E-02       6    1    1      -0.4882421747E+01      0.1414566003E+02      0.1443316373E+03     -0.5577651239E-02
          0                 3           5             6    1     1      -0.2888069554E-03       6    1    1      -0.2555005878E+00      0.7355227041E+00      0.1414566003E+02     -0.2888069554E-03
          0                 4           3             6    1     1      -0.1555095300E-04       6    1    1      -0.1279405330E-01      0.3917848746E-01      0.7355227041E+00     -0.1555095300E-04

    ------------------------------------------------
       NWT REQUIRED            4 OUTER ITERATIONS 
       AND A TOTAL OF         23 INNER ITERATIONS.
    ------------------------------------------------
                                                   Max.-Head-Change                        Max.-Flux-Residual
  Residual-Control   Outer-Iter.   Inner-Iter.     Column Row Layer    Max.-Head-Change    Column Row Layer    Max.-Flux-Residual            L2-New               L2-Old           Solver-Max-Delh
          0                 1           7             6    1     1       0.2455527328E-01       6   15    1       0.2032994593E+02      0.5485991757E+02      0.3917848746E-01      0.2455527328E-01
          0                 2           6             6    1     2      -0.2104683339E-02       6   15    1      -0.2012487221E+01      0.5383384476E+01      0.5485991757E+02     -0.2104683339E-02
          0                 3           4             6    1     1      -0.1067913438E-03       6   15    1      -0.1010199086E+00      0.2765603990E+00      0.5383384476E+01     -0.1067913438E-03
          0                 4           2             6    1     1      -0.1208771965E-04       6    1    1      -0.1482526545E-01      0.3217908127E-01      0.2765603990E+00     -0.1208771965E-04

    ------------------------------------------------
       NWT REQUIRED            4 OUTER ITERATIONS 
       AND A TOTAL OF         19 INNER ITERATIONS.
    ------------------------------------------------
                                                   Max.-Head-Change                        Max.-Flux-Residual
  Residual-Control   Outer-Iter.   Inner-Iter.     Column Row Layer    Max.-Head-Change    Column Row Layer    Max.-Flux-Residual            L2-New               L2-Old           Solver-Max-Delh
          0                 1           6             5   15     2       0.8040185910E-02       6   15    1       0.6541920996E+01      0.1597635161E+02      0.3217908127E-01      0.8040185910E-02
          0                 2           5             5   15     2      -0.6930511424E-03       6   15    1      -0.6502032236E+00      0.1577055387E+01      0.1597635161E+02     -0.6930511424E-03
          0                 3           3             5   15     2      -0.3397241094E-04       6   15    1      -0.3220515040E-01      0.7803542526E-01      0.1577055387E+01     -0.3397241094E-04

    ------------------------------------------------
       NWT REQUIRED            3 OUTER ITERATIONS 
       AND A TOTAL OF         14 INNER ITERATIONS.
    ------------------------------------------------
                                                   Max.-Head-Change                        Max.-Flux-Residual
  Residual-Control   Outer-Iter.   Inner-Iter.     Column Row Layer    Max.-Head-Change    Column Row Layer    Max.-Flux-Residual            L2-New               L2-Old           Solver-Max-Delh
          0                 1           6             6    8     1      -0.3545445801E-02       6    7    1      -0.2084729980E+01      0.6480751441E+01      0.7803542526E-01     -0.3545445801E-02
          0                 2           4             6    8     1       0.3005002888E-03       6    9    1       0.2040181667E+00      0.6375454384E+00      0.6480751441E+01      0.3005002888E-03
          0                 3           3             6    7     1       0.1538901552E-04       6   15    1      -0.1530550732E-01      0.3642935466E-01      0.6375454384E+00      0.1538901552E-04

    ------------------------------------------------
       NWT REQUIRED            3 OUTER ITERATIONS 
       AND A TOTAL OF         13 INNER ITERATIONS.
    ------------------------------------------------
                                                   Max.-Head-Change                        Max.-Flux-Residual
  Residual-Control   Outer-Iter.   Inner-Iter.     Column Row Layer    Max.-Head-Change    Column Row Layer    Max.-Flux-Residual            L2-New               L2-Old           Solver-Max-Delh
          0                 1           6             6    7     1      -0.3154554197E-02       6    7    1      -0.1754548503E+01      0.5791040045E+01      0.3642935466E-01     -0.3154554197E-02
          0                 2           4             6    8     1       0.2673259432E-03       6    8    1       0.1746445305E+00      0.5655222265E+00      0.5791040045E+01      0.2673259432E-03
          0                 3           3             6    8     1       0.1529522074E-04       6   15    1       0.1390182451E-01      0.3472309909E-01      0.5655222265E+00      0.1529522074E-04

    ------------------------------------------------
       NWT REQUIRED            3 OUTER ITERATIONS 
       AND A TOTAL OF         13 INNER ITERATIONS.
    ------------------------------------------------
                                                   Max.-Head-Change                        Max.-Flux-Residual
  Residual-Control   Outer-Iter.   Inner-Iter.     Column Row Layer    Max.-Head-Change    Column Row Layer    Max.-Flux-Residual            L2-New               L2-Old           Solver-Max-Delh
          0                 1           6             1    1     2      -0.1975922130E-02       6    8    1      -0.1048342183E+01      0.3889867622E+01      0.3472309909E-01     -0.1975922130E-02
          0                 2           4             1    1     2       0.1695666489E-03       6    9    1       0.1050783874E+00      0.3778346531E+00      0.3889867622E+01      0.1695666489E-03
          0                 3           3             6    7     1       0.1343891295E-04       6   15    1       0.1482834411E-01      0.3188118295E-01      0.3778346531E+00      0.1343891295E-04

    ------------------------------------------------
       NWT REQUIRED            3 OUTER ITERATIONS 
       AND A TOTAL OF         13 INNER ITERATIONS.
    ------------------------------------------------
                                                   Max.-Head-Change                        Max.-Flux-Residual
  Residual-Control   Outer-Iter.   Inner-Iter.     Column Row Layer    Max.-Head-Change    Column Row Layer    Max.-Flux-Residual            L2-New               L2-Old           Solver-Max-Delh
          0                 1           5             1    1     2      -0.1032244041E-02       6    1    1      -0.5992909099E+00      0.2098149548E+01      0.3188118295E-01     -0.1032244041E-02
          0                 2           4             1    1     2       0.8575319891E-04       6   15    1       0.6094402639E-01      0.2025149380E+00      0.2098149548E+01      0.8575319891E-04

    ------------------------------------------------
       NWT REQUIRED            2 OUTER ITERATIONS 
       AND A TOTAL OF          9 INNER ITERATIONS.
    ------------------------------------------------
                                                   Max.-Head-Change                        Max.-Flux-Residual
  Residual-Control   Outer-Iter.   Inner-Iter.     Column Row Layer    Max.-Head-Change    Column Row Layer    Max.-Flux-Residual            L2-New               L2-Old           Solver-Max-Delh
          0                 1           5             1   11     3      -0.4630744836E-03       6    1    1      -0.3297254802E+00      0.1038519825E+01      0.2025149380E+00     -0.4630744836E-03
          0                 2           4             3   15     1       0.3852186181E-04       6    1    1       0.3268511430E-01      0.9790000711E-01      0.1038519825E+01      0.3852186181E-04

    ------------------------------------------------
       NWT REQUIRED            2 OUTER ITERATIONS 
       AND A TOTAL OF          9 INNER ITERATIONS.
    ------------------------------------------------
                                                   Max.-Head-Change                        Max.-Flux-Residual
  Residual-Control   Outer-Iter.   Inner-Iter.     Column Row Layer    Max.-Head-Change    Column Row Layer    Max.-Flux-Residual            L2-New               L2-Old           Solver-Max-Delh
          0                 1           5             1   11     2      -0.3109454244E-03       1   15    1      -0.2161857410E+00      0.5144145706E+00      0.9790000711E-01     -0.3109454244E-03
          0                 2           3             1   12     2       0.2659264189E-04       1   15    1       0.2325540420E-01      0.5478670233E-01      0.5144145706E+00      0.2659264189E-04

    ------------------------------------------------
       NWT REQUIRED            2 OUTER ITERATIONS 
       AND A TOTAL OF          8 INNER ITERATIONS.
    ------------------------------------------------

 OUTPUT CONTROL FOR STRESS PERIOD      2   TIME STEP     2
    SAVE BUDGET
 UBDSV1 SAVING "         STORAGE" ON UNIT7013 AT TIME STEP    2, STRESS PERIOD   2
 UBDSV2 SAVING "   CONSTANT HEAD" ON UNIT7013 AT TIME STEP    2, STRESS PERIOD   2
 UBDSV1 SAVING "FLOW RIGHT FACE " ON UNIT7013 AT TIME STEP    2, STRESS PERIOD   2
 UBDSV1 SAVING "FLOW FRONT FACE " ON UNIT7013 AT TIME STEP    2, STRESS PERIOD   2
 UBDSV1 SAVING "FLOW LOWER FACE " ON UNIT7013 AT TIME STEP    2, STRESS PERIOD   2
 UBDSV4 SAVING "  STREAM LEAKAGE" ON UNIT7013 AT TIME STEP    2, STRESS PERIOD   2



 
 
 
 
 
 
 
 
 UBDSV3 SAVING "FARM  NET  RECH." ON UNIT7013 AT TIME STEP    2, STRESS PERIOD   2
 UBDSV4 SAVING " GHOST-NODE HEAD" ON UNIT7013 AT TIME STEP    2, STRESS PERIOD   2
1
  VOLUMETRIC BUDGET FOR ENTIRE MODEL AT END OF TIME STEP    2 IN STRESS PERIOD      2
  ------------------------------------------------------------------------------

     CUMULATIVE VOLUMES      L**3       RATES FOR THIS TIME STEP      L**3/T
     ------------------                 ------------------------

           IN:                                      IN:
           ---                                      ---
             STORAGE =       62998.4023               STORAGE =           0.0000
       CONSTANT HEAD =           0.0000         CONSTANT HEAD =           0.0000
      STREAM LEAKAGE =      165095.9688        STREAM LEAKAGE =        3138.4836
          FARM WELLS =           0.0000            FARM WELLS =           0.0000
    FARM  NET  RECH. =       63726.3672      FARM  NET  RECH. =        1283.1510
     GHOST-NODE HEAD =     3320344.7500       GHOST-NODE HEAD =       11281.4932

            TOTAL IN =     3612165.5000              TOTAL IN =       15703.1279

          OUT:                                     OUT:
          ----                                     ----
             STORAGE =     3609159.2500               STORAGE =       15556.1660
       CONSTANT HEAD =           0.0000         CONSTANT HEAD =           0.0000
      STREAM LEAKAGE =           0.0000        STREAM LEAKAGE =           0.0000
          FARM WELLS =           0.0000            FARM WELLS =           0.0000
    FARM  NET  RECH. =           0.0000      FARM  NET  RECH. =           0.0000
     GHOST-NODE HEAD =        3005.4185       GHOST-NODE HEAD =         146.9572

           TOTAL OUT =     3612164.7500             TOTAL OUT =       15703.1230

            IN - OUT =           0.7500              IN - OUT =       4.8828E-03

 PERCENT DISCREPANCY =           0.00     PERCENT DISCREPANCY =           0.00






          TIME SUMMARY AT END OF TIME STEP     2 IN STRESS PERIOD      2
                    SECONDS     MINUTES      HOURS       DAYS        YEARS
                    -----------------------------------------------------------
   TIME STEP LENGTH 1.31414E+06  21902.      365.04      15.210     4.16427E-02
 STRESS PERIOD TIME 2.62829E+06  43805.      730.08      30.420     8.32854E-02
         TOTAL TIME 5.25658E+06  87610.      1460.2      60.840     0.16657    
1
1
  FLUX ACROSS PARENT-CHILD INTERFACE AT TIME STEP  2 IN STRESS PERIOD    2
  ------------------------------------------------------------------------
 G-N FLUX        PARENT        CHILD         DIFFERENCE      % DIFFERENCE
  RATE IN:      1.1282E+04    1.1281E+04     6.7773E-01        0.0060
 RATE OUT:      1.4692E+02    1.4696E+02    -3.2928E-02       -0.0224
1
                            STRESS PERIOD NO.      3, LENGTH =   30.42000    
                            -----------------------------------------------

                              NUMBER OF TIME STEPS =     2

                               MULTIPLIER FOR DELT =     1.000

                            INITIAL TIME STEP SIZE =   15.21000    

 REUSING STREAM SEGMENT DATA FROM LAST STRESS PERIOD

 Parameter:  WELLS1
 WELL NO. LAYER    ROW    COL  F-WELL ID    FARM ID         QMAX         QMAXRESET       LGRGRID         
 --------------------------------------------------------------------------------------------------------
       1      1      2      2          5          2      2.0000E+03              0              0
       2      1      5      5          6          2      1.0000E+03              0              0

 NUMBER OF ACTIVE FARM WELLS:        2

 FARM-ID  NUMBER OF WELLS PER FARM  TOTAL MAX.CAPACITY PER FARM
       1                         0                       0.0000
       2                         2                    3000.0000
       3                         0                       0.0000
       4                         0                       0.0000
       5                         0                       0.0000
       6                         0                       0.0000
       7                         0                       0.0000
       8                         0                       0.0000

Transpiratory and Evaporative Fractions of Crop Consumptive Use
    % Transpiration % Evap. for Precip. % Evap. for Irrig.
    3          0.000          1.000          1.000
    5          0.835          0.165          0.000

FRACTIONS OF IN-EFFICIENT LOSSES TO SW-RUNOFF FROM 
     PRECIPITATION:  IRRIGATION:
    3          0.600          0.500
    5          0.500          0.000
 
 SOLVING FOR HEAD 
                                                   Max.-Head-Change                        Max.-Flux-Residual
  Residual-Control   Outer-Iter.   Inner-Iter.     Column Row Layer    Max.-Head-Change    Column Row Layer    Max.-Flux-Residual            L2-New               L2-Old           Solver-Max-Delh
          0                 1          10             1    7     1       0.3039661295E+01       1   15    1       0.6745923432E+03      0.2640616021E+04      0.5478670233E-01      0.3039661295E+01
          0                 2           9             1    7     1      -0.2864906533E+00       1   15    1      -0.6468777559E+02      0.2599665897E+03      0.2640616021E+04     -0.2864906533E+00
          0                 3           7             1    6     1      -0.1470283174E-01       1   15    1      -0.3275631058E+01      0.1310279257E+02      0.2599665897E+03     -0.1470283174E-01
          0                 4           5             1    6     1      -0.7380412967E-03       1   15    1      -0.1588628982E+00      0.6565417706E+00      0.1310279257E+02     -0.7380412967E-03
          0                 5           3             1    7     1      -0.3705590555E-04       1   10    1      -0.1559007197E-01      0.3999563827E-01      0.6565417706E+00     -0.3705590555E-04

    ------------------------------------------------
       NWT REQUIRED            5 OUTER ITERATIONS 
       AND A TOTAL OF         34 INNER ITERATIONS.
    ------------------------------------------------
                                                   Max.-Head-Change                        Max.-Flux-Residual
  Residual-Control   Outer-Iter.   Inner-Iter.     Column Row Layer    Max.-Head-Change    Column Row Layer    Max.-Flux-Residual            L2-New               L2-Old           Solver-Max-Delh
          0                 1          10             1   11     2       0.5341014506E+00       4   14    1      -0.3668380102E+03      0.1169526550E+04      0.3999563827E-01      0.5341014506E+00
          0                 2           8             1   11     2      -0.4600170844E-01       4   14    1       0.3714100367E+02      0.1178942399E+03      0.1169526550E+04     -0.4600170844E-01
          0                 3           6             1   11     1      -0.2336359516E-02       4   14    1       0.1860283476E+01      0.5984813398E+01      0.1178942399E+03     -0.2336359516E-02
          0                 4           4             1   11     1      -0.1230595875E-03       1   11    1      -0.9453922207E-01      0.3009674610E+00      0.5984813398E+01     -0.1230595875E-03
          0                 5           2             6    7     1      -0.7747286773E-05       4   15    1      -0.8449696878E-02      0.2158177234E-01      0.3009674610E+00     -0.7747286773E-05

    ------------------------------------------------
       NWT REQUIRED            5 OUTER ITERATIONS 
       AND A TOTAL OF         30 INNER ITERATIONS.
    ------------------------------------------------
                                                   Max.-Head-Change                        Max.-Flux-Residual
  Residual-Control   Outer-Iter.   Inner-Iter.     Column Row Layer    Max.-Head-Change    Column Row Layer    Max.-Flux-Residual            L2-New               L2-Old           Solver-Max-Delh
          0                 1           9             1   11     1       0.3152262202E+00       6    1    1       0.2127492892E+03      0.6856360832E+03      0.2158177234E-01      0.3152262202E+00
          0                 2           8             1   11     1      -0.2693072718E-01       6    1    1      -0.2115718455E+02      0.6826260776E+02      0.6856360832E+03     -0.2693072718E-01
          0                 3           6             1   11     1      -0.1383742240E-02       6    1    1      -0.1068096202E+01      0.3482939513E+01      0.6826260776E+02     -0.1383742240E-02
          0                 4           4             1   10     1      -0.7019341326E-04       6    1    1      -0.5386965972E-01      0.1805058941E+00      0.3482939513E+01     -0.7019341326E-04

    ------------------------------------------------
       NWT REQUIRED            4 OUTER ITERATIONS 
       AND A TOTAL OF         27 INNER ITERATIONS.
    ------------------------------------------------
                                                   Max.-Head-Change                        Max.-Flux-Residual
  Residual-Control   Outer-Iter.   Inner-Iter.     Column Row Layer    Max.-Head-Change    Column Row Layer    Max.-Flux-Residual            L2-New               L2-Old           Solver-Max-Delh
          0                 1           9             1    1     2       0.1717014770E+00       6    1    1       0.1229752316E+03      0.3476889685E+03      0.1805058941E+00      0.1717014770E+00
          0                 2           7             1    1     2      -0.1475667889E-01       6    1    1      -0.1220902029E+02      0.3448489840E+02      0.3476889685E+03     -0.1475667889E-01
          0                 3           5             1    1     2      -0.7420752979E-03       6    1    1      -0.6173780213E+00      0.1754834208E+01      0.3448489840E+02     -0.7420752979E-03
          0                 4           4             6    6     1      -0.3861242897E-04       6    1    1      -0.3073717142E-01      0.9397178133E-01      0.1754834208E+01     -0.3861242897E-04

    ------------------------------------------------
       NWT REQUIRED            4 OUTER ITERATIONS 
       AND A TOTAL OF         25 INNER ITERATIONS.
    ------------------------------------------------
                                                   Max.-Head-Change                        Max.-Flux-Residual
  Residual-Control   Outer-Iter.   Inner-Iter.     Column Row Layer    Max.-Head-Change    Column Row Layer    Max.-Flux-Residual            L2-New               L2-Old           Solver-Max-Delh
          0                 1           8             1    1     2       0.8111908586E-01       6    1    1       0.6178073528E+02      0.1565316552E+03      0.9397178133E-01      0.8111908586E-01
          0                 2           7             1    1     2      -0.6973399791E-02       6    1    1      -0.6122555974E+01      0.1550556035E+02      0.1565316552E+03     -0.6973399791E-02
          0                 3           5             6    1     1      -0.3573596938E-03       6    1    1      -0.3193600257E+00      0.7950752034E+00      0.1550556035E+02     -0.3573596938E-03
          0                 4           3             1    1     1      -0.2090602705E-04       1    1    1      -0.1498875703E-01      0.4457466119E-01      0.7950752034E+00     -0.2090602705E-04

    ------------------------------------------------
       NWT REQUIRED            4 OUTER ITERATIONS 
       AND A TOTAL OF         23 INNER ITERATIONS.
    ------------------------------------------------
                                                   Max.-Head-Change                        Max.-Flux-Residual
  Residual-Control   Outer-Iter.   Inner-Iter.     Column Row Layer    Max.-Head-Change    Column Row Layer    Max.-Flux-Residual            L2-New               L2-Old           Solver-Max-Delh
          0                 1           8             6    1     1       0.3427170297E-01       6    1    1       0.2686443916E+02      0.6353397453E+02      0.4457466119E-01      0.3427170297E-01
          0                 2           6             6    1     1      -0.2928756427E-02       6    1    1      -0.2662972039E+01      0.6295344616E+01      0.6353397453E+02     -0.2928756427E-02
          0                 3           4             6    1     1      -0.1479998560E-03       6    1    1      -0.1342433941E+00      0.3154874860E+00      0.6295344616E+01     -0.1479998560E-03
          0                 4           3             6    4     1      -0.1118054869E-04       6    6    1      -0.8431262453E-02      0.2663091594E-01      0.3154874860E+00     -0.1118054869E-04

    ------------------------------------------------
       NWT REQUIRED            4 OUTER ITERATIONS 
       AND A TOTAL OF         21 INNER ITERATIONS.
    ------------------------------------------------
                                                   Max.-Head-Change                        Max.-Flux-Residual
  Residual-Control   Outer-Iter.   Inner-Iter.     Column Row Layer    Max.-Head-Change    Column Row Layer    Max.-Flux-Residual            L2-New               L2-Old           Solver-Max-Delh
          0                 1           7             6    1     1       0.1166847513E-01       6    1    1       0.9608773890E+01      0.2152443436E+02      0.2663091594E-01      0.1166847513E-01
          0                 2           5             6    1     2      -0.1000453155E-02       6    1    1      -0.9515069750E+00      0.2132768173E+01      0.2152443436E+02     -0.1000453155E-02
          0                 3           4             6    1     1      -0.5440576284E-04       6    1    1      -0.5294622085E-01      0.1115679350E+00      0.2132768173E+01     -0.5440576284E-04

    ------------------------------------------------
       NWT REQUIRED            3 OUTER ITERATIONS 
       AND A TOTAL OF         16 INNER ITERATIONS.
    ------------------------------------------------
                                                   Max.-Head-Change                        Max.-Flux-Residual
  Residual-Control   Outer-Iter.   Inner-Iter.     Column Row Layer    Max.-Head-Change    Column Row Layer    Max.-Flux-Residual            L2-New               L2-Old           Solver-Max-Delh
          0                 1           6             2   15     3       0.2948972546E-02       6    1    1       0.2259215997E+01      0.5864153226E+01      0.1115679350E+00      0.2948972546E-02
          0                 2           4             2   15     3      -0.2546386969E-03       1   12    1       0.2260456834E+00      0.5822686116E+00      0.5864153226E+01     -0.2546386969E-03
          0                 3           2             1   15     3      -0.1233040235E-04       1   10    1       0.1138096070E-01      0.3163121031E-01      0.5822686116E+00     -0.1233040235E-04

    ------------------------------------------------
       NWT REQUIRED            3 OUTER ITERATIONS 
       AND A TOTAL OF         12 INNER ITERATIONS.
    ------------------------------------------------
                                                   Max.-Head-Change                        Max.-Flux-Residual
  Residual-Control   Outer-Iter.   Inner-Iter.     Column Row Layer    Max.-Head-Change    Column Row Layer    Max.-Flux-Residual            L2-New               L2-Old           Solver-Max-Delh
          0                 1           6             6    8     1      -0.2602093176E-02       6    7    1      -0.1485644896E+01      0.4335796664E+01      0.3163121031E-01     -0.2602093176E-02
          0                 2           4             6    8     1       0.2268095396E-03       6    8    1       0.1503909201E+00      0.4364357854E+00      0.4335796664E+01      0.2268095396E-03
          0                 3           2             1    1     1       0.1149598630E-04       3    1    1       0.9385863494E-02      0.2305773014E-01      0.4364357854E+00      0.1149598630E-04

    ------------------------------------------------
       NWT REQUIRED            3 OUTER ITERATIONS 
       AND A TOTAL OF         12 INNER ITERATIONS.
    ------------------------------------------------
                                                   Max.-Head-Change                        Max.-Flux-Residual
  Residual-Control   Outer-Iter.   Inner-Iter.     Column Row Layer    Max.-Head-Change    Column Row Layer    Max.-Flux-Residual            L2-New               L2-Old           Solver-Max-Delh
          0                 1           6             6    7     1      -0.1960289325E-02       6    7    1      -0.1080330005E+01      0.3608226134E+01      0.2305773014E-01     -0.1960289325E-02
          0                 2           4             6    7     1       0.1689392711E-03       6    9    1       0.1123685339E+00      0.3592386308E+00      0.3608226134E+01      0.1689392711E-03
          0                 3           2             6    6     1       0.1040648229E-04       6   12    1       0.8847340010E-02      0.2533901302E-01      0.3592386308E+00      0.1040648229E-04

    ------------------------------------------------
       NWT REQUIRED            3 OUTER ITERATIONS 
       AND A TOTAL OF         12 INNER ITERATIONS.
    ------------------------------------------------
                                                   Max.-Head-Change                        Max.-Flux-Residual
  Residual-Control   Outer-Iter.   Inner-Iter.     Column Row Layer    Max.-Head-Change    Column Row Layer    Max.-Flux-Residual            L2-New               L2-Old           Solver-Max-Delh
          0                 1           5             6    7     1      -0.1144304031E-02       6    1    1      -0.6216719427E+00      0.2222037564E+01      0.2533901302E-01     -0.1144304031E-02
          0                 2           4             1    1     2       0.9675280406E-04       6    4    1       0.6131849211E-01      0.2171996495E+00      0.2222037564E+01      0.9675280406E-04

    ------------------------------------------------
       NWT REQUIRED            2 OUTER ITERATIONS 
       AND A TOTAL OF          9 INNER ITERATIONS.
    ------------------------------------------------
                                                   Max.-Head-Change                        Max.-Flux-Residual
  Residual-Control   Outer-Iter.   Inner-Iter.     Column Row Layer    Max.-Head-Change    Column Row Layer    Max.-Flux-Residual            L2-New               L2-Old           Solver-Max-Delh
          0                 1           5             1    1     2      -0.5744808937E-03       6    1    1      -0.3656566655E+00      0.1104263913E+01      0.2171996495E+00     -0.5744808937E-03
          0                 2           4             1    1     2       0.4899513665E-04       6    1    1       0.4171480041E-01      0.1122352630E+00      0.1104263913E+01      0.4899513665E-04

    ------------------------------------------------
       NWT REQUIRED            2 OUTER ITERATIONS 
       AND A TOTAL OF          9 INNER ITERATIONS.
    ------------------------------------------------
                                                   Max.-Head-Change                        Max.-Flux-Residual
  Residual-Control   Outer-Iter.   Inner-Iter.     Column Row Layer    Max.-Head-Change    Column Row Layer    Max.-Flux-Residual            L2-New               L2-Old           Solver-Max-Delh
          0                 1           5             6    1     1      -0.2594603401E-03       6    1    1      -0.2004201426E+00      0.5153075821E+00      0.1122352630E+00     -0.2594603401E-03
          0                 2           3             6    3     1       0.2379071914E-04       6    3    1       0.1832135516E-01      0.5367693040E-01      0.5153075821E+00      0.2379071914E-04

    ------------------------------------------------
       NWT REQUIRED            2 OUTER ITERATIONS 
       AND A TOTAL OF          8 INNER ITERATIONS.
    ------------------------------------------------

 OUTPUT CONTROL FOR STRESS PERIOD      3   TIME STEP     1
    SAVE BUDGET
 UBDSV1 SAVING "         STORAGE" ON UNIT7013 AT TIME STEP    1, STRESS PERIOD   3
 UBDSV2 SAVING "   CONSTANT HEAD" ON UNIT7013 AT TIME STEP    1, STRESS PERIOD   3
 UBDSV1 SAVING "FLOW RIGHT FACE " ON UNIT7013 AT TIME STEP    1, STRESS PERIOD   3
 UBDSV1 SAVING "FLOW FRONT FACE " ON UNIT7013 AT TIME STEP    1, STRESS PERIOD   3
 UBDSV1 SAVING "FLOW LOWER FACE " ON UNIT7013 AT TIME STEP    1, STRESS PERIOD   3
 UBDSV4 SAVING "  STREAM LEAKAGE" ON UNIT7013 AT TIME STEP    1, STRESS PERIOD   3



 
 
 
 
 
 
 
 
 UBDSV3 SAVING "FARM  NET  RECH." ON UNIT7013 AT TIME STEP    1, STRESS PERIOD   3
 UBDSV4 SAVING " GHOST-NODE HEAD" ON UNIT7013 AT TIME STEP    1, STRESS PERIOD   3
1
  FLUX ACROSS PARENT-CHILD INTERFACE AT TIME STEP  1 IN STRESS PERIOD    3
  ------------------------------------------------------------------------
 G-N FLUX        PARENT        CHILD         DIFFERENCE      % DIFFERENCE
  RATE IN:      6.9338E+03    6.9334E+03     3.6230E-01        0.0052
 RATE OUT:      3.6940E+02    3.6957E+02    -1.6849E-01       -0.0456
 
 SOLVING FOR HEAD 
                                                   Max.-Head-Change                        Max.-Flux-Residual
  Residual-Control   Outer-Iter.   Inner-Iter.     Column Row Layer    Max.-Head-Change    Column Row Layer    Max.-Flux-Residual            L2-New               L2-Old           Solver-Max-Delh
          0                 1          10             1    7     1       0.1812876540E+01       1   14    1       0.5695418547E+03      0.1970425816E+04      0.5367693040E-01      0.1812876540E+01
          0                 2           9             1    7     1      -0.1640366060E+00       1   14    1      -0.5802562299E+02      0.1937758199E+03      0.1970425816E+04     -0.1640366060E+00
          0                 3           7             1    7     1      -0.8316368728E-02       1   14    1      -0.2951296696E+01      0.9742251084E+01      0.1937758199E+03     -0.8316368728E-02
          0                 4           5             1    7     1      -0.4168273952E-03       1   14    1      -0.1467168472E+00      0.4899620891E+00      0.9742251084E+01     -0.4168273952E-03
          0                 5           3             1    6     1      -0.2022879165E-04       4   14    1      -0.6025692855E-02      0.2564181846E-01      0.4899620891E+00     -0.2022879165E-04

    ------------------------------------------------
       NWT REQUIRED            5 OUTER ITERATIONS 
       AND A TOTAL OF         34 INNER ITERATIONS.
    ------------------------------------------------
                                                   Max.-Head-Change                        Max.-Flux-Residual
  Residual-Control   Outer-Iter.   Inner-Iter.     Column Row Layer    Max.-Head-Change    Column Row Layer    Max.-Flux-Residual            L2-New               L2-Old           Solver-Max-Delh
          0                 1           9             1   11     2       0.3379699504E+00       4   14    1      -0.3668383261E+03      0.8820369100E+03      0.2564181846E-01      0.3379699504E+00
          0                 2           8             1   11     2      -0.2911606171E-01       4   14    1       0.3675700621E+02      0.8862151797E+02      0.8820369100E+03     -0.2911606171E-01
          0                 3           6             1   11     2      -0.1461311132E-02       4   14    1       0.1838303739E+01      0.4463661494E+01      0.8862151797E+02     -0.1461311132E-02
          0                 4           4             1   11     2      -0.7332936363E-04       4   14    1       0.9187049058E-01      0.2231268331E+00      0.4463661494E+01     -0.7332936363E-04

    ------------------------------------------------
       NWT REQUIRED            4 OUTER ITERATIONS 
       AND A TOTAL OF         27 INNER ITERATIONS.
    ------------------------------------------------
                                                   Max.-Head-Change                        Max.-Flux-Residual
  Residual-Control   Outer-Iter.   Inner-Iter.     Column Row Layer    Max.-Head-Change    Column Row Layer    Max.-Flux-Residual            L2-New               L2-Old           Solver-Max-Delh
          0                 1           9             1    1     2       0.2010947954E+00       6    1    1       0.1485362205E+03      0.4615877437E+03      0.2231268331E+00      0.2010947954E+00
          0                 2           8             1    1     2      -0.1731835500E-01       6    1    1      -0.1483663278E+02      0.4605467474E+02      0.4615877437E+03     -0.1731835500E-01
          0                 3           6             1    1     2      -0.8696814023E-03       6    1    1      -0.7507531149E+00      0.2329075381E+01      0.4605467474E+02     -0.8696814023E-03
          0                 4           4             1    1     1      -0.4540542127E-04       1   15    1      -0.3826968354E-01      0.1189511187E+00      0.2329075381E+01     -0.4540542127E-04

    ------------------------------------------------
       NWT REQUIRED            4 OUTER ITERATIONS 
       AND A TOTAL OF         27 INNER ITERATIONS.
    ------------------------------------------------
                                                   Max.-Head-Change                        Max.-Flux-Residual
  Residual-Control   Outer-Iter.   Inner-Iter.     Column Row Layer    Max.-Head-Change    Column Row Layer    Max.-Flux-Residual            L2-New               L2-Old           Solver-Max-Delh
          0                 1           9             1    1     2       0.1078931186E+00       6    1    1       0.8132784559E+02      0.2284643445E+03      0.1189511187E+00      0.1078931186E+00
          0                 2           7             1    1     2      -0.9292501430E-02       6    1    1      -0.8115774618E+01      0.2276674409E+02      0.2284643445E+03     -0.9292501430E-02
          0                 3           5             1    1     2      -0.4669164649E-03       6    1    1      -0.4077900037E+00      0.1156416649E+01      0.2276674409E+02     -0.4669164649E-03
          0                 4           3             6    1     1      -0.2366870111E-04       6    1    1      -0.2369666536E-01      0.6084667583E-01      0.1156416649E+01     -0.2366870111E-04

    ------------------------------------------------
       NWT REQUIRED            4 OUTER ITERATIONS 
       AND A TOTAL OF         24 INNER ITERATIONS.
    ------------------------------------------------
                                                   Max.-Head-Change                        Max.-Flux-Residual
  Residual-Control   Outer-Iter.   Inner-Iter.     Column Row Layer    Max.-Head-Change    Column Row Layer    Max.-Flux-Residual            L2-New               L2-Old           Solver-Max-Delh
          0                 1           8             6    1     1       0.5002424930E-01       6    1    1       0.3894935797E+02      0.1003188870E+03      0.6084667583E-01      0.5002424930E-01
          0                 2           7             6    1     1      -0.4307923513E-02       6    1    1      -0.3887988916E+01      0.1001170156E+02      0.1003188870E+03     -0.4307923513E-02
          0                 3           5             6    1     1      -0.2172503367E-03       6    1    1      -0.1974474098E+00      0.5001789410E+00      0.1001170156E+02     -0.2172503367E-03
          0                 4           3             6    9     1      -0.1165319426E-04       6    1    1      -0.1261568227E-01      0.3127380021E-01      0.5001789410E+00     -0.1165319426E-04

    ------------------------------------------------
       NWT REQUIRED            4 OUTER ITERATIONS 
       AND A TOTAL OF         23 INNER ITERATIONS.
    ------------------------------------------------
                                                   Max.-Head-Change                        Max.-Flux-Residual
  Residual-Control   Outer-Iter.   Inner-Iter.     Column Row Layer    Max.-Head-Change    Column Row Layer    Max.-Flux-Residual            L2-New               L2-Old           Solver-Max-Delh
          0                 1           7             6    1     1       0.2004022748E-01       6    1    1       0.1603141044E+02      0.3852989927E+02      0.3127380021E-01      0.2004022748E-01
          0                 2           6             6    1     1      -0.1725616962E-02       6    1    1      -0.1598881081E+01      0.3836499107E+01      0.3852989927E+02     -0.1725616962E-02
          0                 3           4             6    1     1      -0.8601481420E-04       6    1    1      -0.7890180667E-01      0.1963694122E+00      0.3836499107E+01     -0.8601481420E-04

    ------------------------------------------------
       NWT REQUIRED            3 OUTER ITERATIONS 
       AND A TOTAL OF         17 INNER ITERATIONS.
    ------------------------------------------------
                                                   Max.-Head-Change                        Max.-Flux-Residual
  Residual-Control   Outer-Iter.   Inner-Iter.     Column Row Layer    Max.-Head-Change    Column Row Layer    Max.-Flux-Residual            L2-New               L2-Old           Solver-Max-Delh
          0                 1           6             6    1     2       0.6211561315E-02       6    1    1       0.5228475417E+01      0.1166405681E+02      0.1963694122E+00      0.6211561315E-02
          0                 2           5             6    1     2      -0.5354726963E-03       6    1    1      -0.5182999973E+00      0.1161165168E+01      0.1166405681E+02     -0.5354726963E-03
          0                 3           3             6    1     2      -0.2667462062E-04       6   15    1      -0.2667599663E-01      0.6369081951E-01      0.1161165168E+01     -0.2667462062E-04

    ------------------------------------------------
       NWT REQUIRED            3 OUTER ITERATIONS 
       AND A TOTAL OF         14 INNER ITERATIONS.
    ------------------------------------------------
                                                   Max.-Head-Change                        Max.-Flux-Residual
  Residual-Control   Outer-Iter.   Inner-Iter.     Column Row Layer    Max.-Head-Change    Column Row Layer    Max.-Flux-Residual            L2-New               L2-Old           Solver-Max-Delh
          0                 1           5             1   15     3       0.1723244044E-02       1   11    1      -0.9543762794E+00      0.3318840386E+01      0.6369081951E-01      0.1723244044E-02
          0                 2           4             1   15     3      -0.1498538864E-03       1   11    1       0.9824501933E-01      0.3270505918E+00      0.3318840386E+01     -0.1498538864E-03
          0                 3           2             6    2     1      -0.8742315671E-05       1   12    1       0.9835322155E-02      0.2725615275E-01      0.3270505918E+00     -0.8742315671E-05

    ------------------------------------------------
       NWT REQUIRED            3 OUTER ITERATIONS 
       AND A TOTAL OF         11 INNER ITERATIONS.
    ------------------------------------------------
                                                   Max.-Head-Change                        Max.-Flux-Residual
  Residual-Control   Outer-Iter.   Inner-Iter.     Column Row Layer    Max.-Head-Change    Column Row Layer    Max.-Flux-Residual            L2-New               L2-Old           Solver-Max-Delh
          0                 1           5             6    8     1      -0.1824100386E-02       6    7    1      -0.1043939068E+01      0.3177105611E+01      0.2725615275E-01     -0.1824100386E-02
          0                 2           4             6    7     1       0.1599670065E-03       6    7    1       0.1110734041E+00      0.3144358221E+00      0.3177105611E+01      0.1599670065E-03
          0                 3           2             1    1     1       0.1134595521E-04       6    5    1       0.8452633978E-02      0.2482539660E-01      0.3144358221E+00      0.1134595521E-04

    ------------------------------------------------
       NWT REQUIRED            3 OUTER ITERATIONS 
       AND A TOTAL OF         11 INNER ITERATIONS.
    ------------------------------------------------
                                                   Max.-Head-Change                        Max.-Flux-Residual
  Residual-Control   Outer-Iter.   Inner-Iter.     Column Row Layer    Max.-Head-Change    Column Row Layer    Max.-Flux-Residual            L2-New               L2-Old           Solver-Max-Delh
          0                 1           5             6    7     1      -0.1284813701E-02       6    8    1      -0.7075377087E+00      0.2479856624E+01      0.2482539660E-01     -0.1284813701E-02
          0                 2           4             1    1     1       0.1144467308E-03       6    9    1       0.7554276631E-01      0.2545791268E+00      0.2479856624E+01      0.1144467308E-03
          0                 3           2             6    4     1       0.6267723088E-05       6    4    1       0.8876460895E-02      0.1858471731E-01      0.2545791268E+00      0.6267723088E-05

    ------------------------------------------------
       NWT REQUIRED            3 OUTER ITERATIONS 
       AND A TOTAL OF         11 INNER ITERATIONS.
    ------------------------------------------------
                                                   Max.-Head-Change                        Max.-Flux-Residual
  Residual-Control   Outer-Iter.   Inner-Iter.     Column Row Layer    Max.-Head-Change    Column Row Layer    Max.-Flux-Residual            L2-New               L2-Old           Solver-Max-Delh
          0                 1           5             6    6     1      -0.7223335947E-03       6    1    1      -0.4396836594E+00      0.1466565569E+01      0.1858471731E-01     -0.7223335947E-03
          0                 2           4             6    4     1       0.6228777839E-04       6    1    1       0.4152623774E-01      0.1436642534E+00      0.1466565569E+01      0.6228777839E-04

    ------------------------------------------------
       NWT REQUIRED            2 OUTER ITERATIONS 
       AND A TOTAL OF          9 INNER ITERATIONS.
    ------------------------------------------------
                                                   Max.-Head-Change                        Max.-Flux-Residual
  Residual-Control   Outer-Iter.   Inner-Iter.     Column Row Layer    Max.-Head-Change    Column Row Layer    Max.-Flux-Residual            L2-New               L2-Old           Solver-Max-Delh
          0                 1           5             2    1     2      -0.3451390108E-03       6    1    1      -0.2492241408E+00      0.7309716272E+00      0.1436642534E+00     -0.3451390108E-03
          0                 2           4             1    1     1       0.3306777423E-04       6    1    1       0.2943635080E-01      0.7986839185E-01      0.7309716272E+00      0.3306777423E-04

    ------------------------------------------------
       NWT REQUIRED            2 OUTER ITERATIONS 
       AND A TOTAL OF          9 INNER ITERATIONS.
    ------------------------------------------------

 OUTPUT CONTROL FOR STRESS PERIOD      3   TIME STEP     2
    PRINT BUDGET
    SAVE HEAD FOR ALL LAYERS
    SAVE BUDGET
 UBDSV1 SAVING "         STORAGE" ON UNIT7013 AT TIME STEP    2, STRESS PERIOD   3
 UBDSV2 SAVING "   CONSTANT HEAD" ON UNIT7013 AT TIME STEP    2, STRESS PERIOD   3
 UBDSV1 SAVING "FLOW RIGHT FACE " ON UNIT7013 AT TIME STEP    2, STRESS PERIOD   3
 UBDSV1 SAVING "FLOW FRONT FACE " ON UNIT7013 AT TIME STEP    2, STRESS PERIOD   3
 UBDSV1 SAVING "FLOW LOWER FACE " ON UNIT7013 AT TIME STEP    2, STRESS PERIOD   3
 UBDSV4 SAVING "  STREAM LEAKAGE" ON UNIT7013 AT TIME STEP    2, STRESS PERIOD   3



 
 
 
 
 
 
 
 
 UBDSV3 SAVING "FARM  NET  RECH." ON UNIT7013 AT TIME STEP    2, STRESS PERIOD   3
 UBDSV4 SAVING " GHOST-NODE HEAD" ON UNIT7013 AT TIME STEP    2, STRESS PERIOD   3

 HEAD WILL BE SAVED ON UNIT 2213 AT END OF TIME STEP     2, STRESS PERIOD      3
1
  VOLUMETRIC BUDGET FOR ENTIRE MODEL AT END OF TIME STEP    2 IN STRESS PERIOD      3
  ------------------------------------------------------------------------------

     CUMULATIVE VOLUMES      L**3       RATES FOR THIS TIME STEP      L**3/T
     ------------------                 ------------------------

           IN:                                      IN:
           ---                                      ---
             STORAGE =       62998.4023               STORAGE =           0.0000
       CONSTANT HEAD =           0.0000         CONSTANT HEAD =           0.0000
      STREAM LEAKAGE =      203119.4375        STREAM LEAKAGE =        1249.9501
          FARM WELLS =           0.0000            FARM WELLS =           0.0000
    FARM  NET  RECH. =       89075.3516      FARM  NET  RECH. =         833.3000
     GHOST-NODE HEAD =     3497197.7500       GHOST-NODE HEAD =        4693.9614

            TOTAL IN =     3852391.0000              TOTAL IN =        6777.2114

          OUT:                                     OUT:
          ----                                     ----
             STORAGE =     3829318.2500               STORAGE =        5827.5044
       CONSTANT HEAD =           0.0000         CONSTANT HEAD =           0.0000
      STREAM LEAKAGE =           0.0000        STREAM LEAKAGE =           0.0000
          FARM WELLS =           0.0000            FARM WELLS =           0.0000
    FARM  NET  RECH. =           0.0000      FARM  NET  RECH. =           0.0000
     GHOST-NODE HEAD =       23071.4590       GHOST-NODE HEAD =         949.6969

           TOTAL OUT =     3852389.7500             TOTAL OUT =        6777.2012

            IN - OUT =           1.2500              IN - OUT =       1.0254E-02

 PERCENT DISCREPANCY =           0.00     PERCENT DISCREPANCY =           0.00






          TIME SUMMARY AT END OF TIME STEP     2 IN STRESS PERIOD      3
                    SECONDS     MINUTES      HOURS       DAYS        YEARS
                    -----------------------------------------------------------
   TIME STEP LENGTH 1.31414E+06  21902.      365.04      15.210     4.16427E-02
 STRESS PERIOD TIME 2.62829E+06  43805.      730.08      30.420     8.32854E-02
         TOTAL TIME 7.88486E+06 1.31414E+05  2190.2      91.260     0.24986    
1
1
  FLUX ACROSS PARENT-CHILD INTERFACE AT TIME STEP  2 IN STRESS PERIOD    3
  ------------------------------------------------------------------------
 G-N FLUX        PARENT        CHILD         DIFFERENCE      % DIFFERENCE
  RATE IN:      4.6936E+03    4.6940E+03    -3.5547E-01       -0.0076
 RATE OUT:      9.4928E+02    9.4970E+02    -4.1846E-01       -0.0441
1
                            STRESS PERIOD NO.      4, LENGTH =   30.42000    
                            -----------------------------------------------

                              NUMBER OF TIME STEPS =     2

                               MULTIPLIER FOR DELT =     1.000

                            INITIAL TIME STEP SIZE =   15.21000    

 REUSING STREAM SEGMENT DATA FROM LAST STRESS PERIOD

 Parameter:  WELLS1
 WELL NO. LAYER    ROW    COL  F-WELL ID    FARM ID         QMAX         QMAXRESET       LGRGRID         
 --------------------------------------------------------------------------------------------------------
       1      1      2      2          5          2      2.0000E+03              0              0
       2      1      5      5          6          2      1.0000E+03              0              0

 NUMBER OF ACTIVE FARM WELLS:        2

 FARM-ID  NUMBER OF WELLS PER FARM  TOTAL MAX.CAPACITY PER FARM
       1                         0                       0.0000
       2                         2                    3000.0000
       3                         0                       0.0000
       4                         0                       0.0000
       5                         0                       0.0000
       6                         0                       0.0000
       7                         0                       0.0000
       8                         0                       0.0000

Transpiratory and Evaporative Fractions of Crop Consumptive Use
    % Transpiration % Evap. for Precip. % Evap. for Irrig.
    3          0.000          1.000          1.000
    5          0.887          0.113          0.000

FRACTIONS OF IN-EFFICIENT LOSSES TO SW-RUNOFF FROM 
     PRECIPITATION:  IRRIGATION:
    3          0.600          0.500
    5          0.500          0.000
 
 SOLVING FOR HEAD 
                                                   Max.-Head-Change                        Max.-Flux-Residual
  Residual-Control   Outer-Iter.   Inner-Iter.     Column Row Layer    Max.-Head-Change    Column Row Layer    Max.-Flux-Residual            L2-New               L2-Old           Solver-Max-Delh
          0                 1          10             1    7     1       0.9835135824E+00       1   14    1       0.5031170239E+03      0.1343691444E+04      0.7986839185E-01      0.9835135824E+00
          0                 2           8             1    7     1      -0.8679538480E-01       1   14    1      -0.5172649091E+02      0.1342834988E+03      0.1343691444E+04     -0.8679538480E-01
          0                 3           6             1    7     1      -0.4376864037E-02       1   14    1      -0.2642518845E+01      0.6784707462E+01      0.1342834988E+03     -0.4376864037E-02
          0                 4           4             1    8     1      -0.2203370405E-03       1   14    1      -0.1371038744E+00      0.3427901406E+00      0.6784707462E+01     -0.2203370405E-03
          0                 5           3             1    6     4      -0.1171505380E-04       1   15    1      -0.9597264754E-02      0.2496086403E-01      0.3427901406E+00     -0.1171505380E-04

    ------------------------------------------------
       NWT REQUIRED            5 OUTER ITERATIONS 
       AND A TOTAL OF         31 INNER ITERATIONS.
    ------------------------------------------------
                                                   Max.-Head-Change                        Max.-Flux-Residual
  Residual-Control   Outer-Iter.   Inner-Iter.     Column Row Layer    Max.-Head-Change    Column Row Layer    Max.-Flux-Residual            L2-New               L2-Old           Solver-Max-Delh
          0                 1           9             2   14     1      -0.3759043678E+00       2   14    1      -0.4372883226E+03      0.6892478042E+03      0.2496086403E-01     -0.3759043678E+00
          0                 2           7             2   14     1       0.3166872012E-01       2   14    1       0.4202814616E+02      0.6694074351E+02      0.6892478042E+03      0.3166872012E-01
          0                 3           5             2   14     1       0.1595499830E-02       2   14    1       0.2089490102E+01      0.3353275653E+01      0.6694074351E+02      0.1595499830E-02
          0                 4           3             2   14     1       0.8158609887E-04       1   14    1       0.1050541013E+00      0.1692325698E+00      0.3353275653E+01      0.8158609887E-04

    ------------------------------------------------
       NWT REQUIRED            4 OUTER ITERATIONS 
       AND A TOTAL OF         24 INNER ITERATIONS.
    ------------------------------------------------
                                                   Max.-Head-Change                        Max.-Flux-Residual
  Residual-Control   Outer-Iter.   Inner-Iter.     Column Row Layer    Max.-Head-Change    Column Row Layer    Max.-Flux-Residual            L2-New               L2-Old           Solver-Max-Delh
          0                 1           8             6    5     1       0.9132903491E-01       6    1    1       0.7164021311E+02      0.1697714677E+03      0.1692325698E+00      0.9132903491E-01
          0                 2           7             6    5     1      -0.7917430679E-02       6    1    1      -0.7184720835E+01      0.1704973473E+02      0.1697714677E+03     -0.7917430679E-02
          0                 3           5             6    5     1      -0.3955889489E-03       6    1    1      -0.3573415191E+00      0.8476557199E+00      0.1704973473E+02     -0.3955889489E-03
          0                 4           3             6    6     1      -0.2129120436E-04       6    1    1      -0.1780712453E-01      0.4665883774E-01      0.8476557199E+00     -0.2129120436E-04

    ------------------------------------------------
       NWT REQUIRED            4 OUTER ITERATIONS 
       AND A TOTAL OF         23 INNER ITERATIONS.
    ------------------------------------------------
                                                   Max.-Head-Change                        Max.-Flux-Residual
  Residual-Control   Outer-Iter.   Inner-Iter.     Column Row Layer    Max.-Head-Change    Column Row Layer    Max.-Flux-Residual            L2-New               L2-Old           Solver-Max-Delh
          0                 1           8             2    1     2       0.7443205825E-01       6    1    1       0.4925135867E+02      0.1122292026E+03      0.4665883774E-01      0.7443205825E-01
          0                 2           7             2    1     2      -0.6428338401E-02       6    1    1      -0.4933381681E+01      0.1125265627E+02      0.1122292026E+03     -0.6428338401E-02
          0                 3           5             2    1     2      -0.3210629839E-03       6    1    1      -0.2453884012E+00      0.5623548406E+00      0.1125265627E+02     -0.3210629839E-03
          0                 4           3             2    1     2      -0.1567264074E-04       6    1    1      -0.1022215770E-01      0.2986305006E-01      0.5623548406E+00     -0.1567264074E-04

    ------------------------------------------------
       NWT REQUIRED            4 OUTER ITERATIONS 
       AND A TOTAL OF         23 INNER ITERATIONS.
    ------------------------------------------------
                                                   Max.-Head-Change                        Max.-Flux-Residual
  Residual-Control   Outer-Iter.   Inner-Iter.     Column Row Layer    Max.-Head-Change    Column Row Layer    Max.-Flux-Residual            L2-New               L2-Old           Solver-Max-Delh
          0                 1           8             1    1     2       0.5375295342E-01       2    1    1       0.2882342417E+02      0.7079929709E+02      0.2986305006E-01      0.5375295342E-01
          0                 2           6             1    1     2      -0.4641516918E-02       2    1    1      -0.2887127585E+01      0.7090468735E+01      0.7079929709E+02     -0.4641516918E-02
          0                 3           4             1    1     2      -0.2322024221E-03       1    1    1      -0.1448362472E+00      0.3536765851E+00      0.7090468735E+01     -0.2322024221E-03
          0                 4           2             1    1     2      -0.1070852636E-04       1   15    1       0.8474644157E-02      0.2307037543E-01      0.3536765851E+00     -0.1070852636E-04

    ------------------------------------------------
       NWT REQUIRED            4 OUTER ITERATIONS 
       AND A TOTAL OF         20 INNER ITERATIONS.
    ------------------------------------------------
                                                   Max.-Head-Change                        Max.-Flux-Residual
  Residual-Control   Outer-Iter.   Inner-Iter.     Column Row Layer    Max.-Head-Change    Column Row Layer    Max.-Flux-Residual            L2-New               L2-Old           Solver-Max-Delh
          0                 1           7             1    1     1       0.3111972656E-01       1    1    1       0.1728963379E+02      0.3860585042E+02      0.2307037543E-01      0.3111972656E-01
          0                 2           6             1    1     1      -0.2681753337E-02       1    1    1      -0.1725174448E+01      0.3855209272E+01      0.3860585042E+02     -0.2681753337E-02
          0                 3           4             1    1     1      -0.1375197491E-03       1    1    1      -0.9153627348E-01      0.1964079826E+00      0.3855209272E+01     -0.1375197491E-03
          0                 4           2             2    1     1      -0.8204939225E-05       2    1    1      -0.8327423362E-02      0.1569401172E-01      0.1964079826E+00     -0.8204939225E-05

    ------------------------------------------------
       NWT REQUIRED            4 OUTER ITERATIONS 
       AND A TOTAL OF         19 INNER ITERATIONS.
    ------------------------------------------------
                                                   Max.-Head-Change                        Max.-Flux-Residual
  Residual-Control   Outer-Iter.   Inner-Iter.     Column Row Layer    Max.-Head-Change    Column Row Layer    Max.-Flux-Residual            L2-New               L2-Old           Solver-Max-Delh
          0                 1           7             1    1     1       0.1445561329E-01       1    1    1       0.8195880401E+01      0.1764855518E+02      0.1569401172E-01      0.1445561329E-01
          0                 2           5             1    1     1      -0.1249706203E-02       1    1    1      -0.8231077432E+00      0.1762511586E+01      0.1764855518E+02     -0.1249706203E-02
          0                 3           3             1    1     1      -0.6075483027E-04       1    1    1      -0.4169757082E-01      0.9016114214E-01      0.1762511586E+01     -0.6075483027E-04

    ------------------------------------------------
       NWT REQUIRED            3 OUTER ITERATIONS 
       AND A TOTAL OF         15 INNER ITERATIONS.
    ------------------------------------------------
                                                   Max.-Head-Change                        Max.-Flux-Residual
  Residual-Control   Outer-Iter.   Inner-Iter.     Column Row Layer    Max.-Head-Change    Column Row Layer    Max.-Flux-Residual            L2-New               L2-Old           Solver-Max-Delh
          0                 1           6             1    1     1       0.5054274672E-02       1    1    1       0.2928073291E+01      0.6485166424E+01      0.9016114214E-01      0.5054274672E-02
          0                 2           5             1    1     1      -0.4345834501E-03       3    1    1      -0.2919282501E+00      0.6457660255E+00      0.6485166424E+01     -0.4345834501E-03
          0                 3           3             1    1     1      -0.2407326320E-04       2    1    1      -0.1678570267E-01      0.3571689108E-01      0.6457660255E+00     -0.2407326320E-04

    ------------------------------------------------
       NWT REQUIRED            3 OUTER ITERATIONS 
       AND A TOTAL OF         14 INNER ITERATIONS.
    ------------------------------------------------
                                                   Max.-Head-Change                        Max.-Flux-Residual
  Residual-Control   Outer-Iter.   Inner-Iter.     Column Row Layer    Max.-Head-Change    Column Row Layer    Max.-Flux-Residual            L2-New               L2-Old           Solver-Max-Delh
          0                 1           5             1   11     2       0.1085904962E-02       1   12    1       0.6128555342E+00      0.1915290465E+01      0.3571689108E-01      0.1085904962E-02
          0                 2           4             1   11     2      -0.9323454263E-04       1   12    1      -0.6542118278E-01      0.1903083076E+00      0.1915290465E+01     -0.9323454263E-04

    ------------------------------------------------
       NWT REQUIRED            2 OUTER ITERATIONS 
       AND A TOTAL OF          9 INNER ITERATIONS.
    ------------------------------------------------
                                                   Max.-Head-Change                        Max.-Flux-Residual
  Residual-Control   Outer-Iter.   Inner-Iter.     Column Row Layer    Max.-Head-Change    Column Row Layer    Max.-Flux-Residual            L2-New               L2-Old           Solver-Max-Delh
          0                 1           5             2    1     2      -0.8136612583E-03       4    1    1      -0.3960653464E+00      0.1128239978E+01      0.1903083076E+00     -0.8136612583E-03
          0                 2           3             2    1     2       0.7051326656E-04       4    1    1       0.4169890075E-01      0.1178227276E+00      0.1128239978E+01      0.7051326656E-04

    ------------------------------------------------
       NWT REQUIRED            2 OUTER ITERATIONS 
       AND A TOTAL OF          8 INNER ITERATIONS.
    ------------------------------------------------
                                                   Max.-Head-Change                        Max.-Flux-Residual
  Residual-Control   Outer-Iter.   Inner-Iter.     Column Row Layer    Max.-Head-Change    Column Row Layer    Max.-Flux-Residual            L2-New               L2-Old           Solver-Max-Delh
          0                 1           5             2    1     2      -0.8032247433E-03       2    1    1      -0.4205581985E+00      0.9755133498E+00      0.1178227276E+00     -0.8032247433E-03
          0                 2           3             2    1     2       0.6873854078E-04       2    1    1       0.4162402567E-01      0.9975668598E-01      0.9755133498E+00      0.6873854078E-04

    ------------------------------------------------
       NWT REQUIRED            2 OUTER ITERATIONS 
       AND A TOTAL OF          8 INNER ITERATIONS.
    ------------------------------------------------
                                                   Max.-Head-Change                        Max.-Flux-Residual
  Residual-Control   Outer-Iter.   Inner-Iter.     Column Row Layer    Max.-Head-Change    Column Row Layer    Max.-Flux-Residual            L2-New               L2-Old           Solver-Max-Delh
          0                 1           5             1    1     1      -0.5354386083E-03       3    1    1      -0.2989046595E+00      0.6512351024E+00      0.9975668598E-01     -0.5354386083E-03
          0                 2           3             1    1     1       0.4607057274E-04       1    1    1       0.3059209127E-01      0.6380201945E-01      0.6512351024E+00      0.4607057274E-04

    ------------------------------------------------
       NWT REQUIRED            2 OUTER ITERATIONS 
       AND A TOTAL OF          8 INNER ITERATIONS.
    ------------------------------------------------
                                                   Max.-Head-Change                        Max.-Flux-Residual
  Residual-Control   Outer-Iter.   Inner-Iter.     Column Row Layer    Max.-Head-Change    Column Row Layer    Max.-Flux-Residual            L2-New               L2-Old           Solver-Max-Delh
          0                 1           4             1    1     1      -0.3061149638E-03       1    1    1      -0.1699086316E+00      0.3768935374E+00      0.6380201945E-01     -0.3061149638E-03
          0                 2           3             2    1     1       0.2430906336E-04       2    1    1       0.1816112990E-01      0.3689575595E-01      0.3768935374E+00      0.2430906336E-04

    ------------------------------------------------
       NWT REQUIRED            2 OUTER ITERATIONS 
       AND A TOTAL OF          7 INNER ITERATIONS.
    ------------------------------------------------

 OUTPUT CONTROL FOR STRESS PERIOD      4   TIME STEP     1
    SAVE BUDGET
 UBDSV1 SAVING "         STORAGE" ON UNIT7013 AT TIME STEP    1, STRESS PERIOD   4
 UBDSV2 SAVING "   CONSTANT HEAD" ON UNIT7013 AT TIME STEP    1, STRESS PERIOD   4
 UBDSV1 SAVING "FLOW RIGHT FACE " ON UNIT7013 AT TIME STEP    1, STRESS PERIOD   4
 UBDSV1 SAVING "FLOW FRONT FACE " ON UNIT7013 AT TIME STEP    1, STRESS PERIOD   4
 UBDSV1 SAVING "FLOW LOWER FACE " ON UNIT7013 AT TIME STEP    1, STRESS PERIOD   4
 UBDSV4 SAVING "  STREAM LEAKAGE" ON UNIT7013 AT TIME STEP    1, STRESS PERIOD   4



 
 
 
 
 
 
 
 
 UBDSV3 SAVING "FARM  NET  RECH." ON UNIT7013 AT TIME STEP    1, STRESS PERIOD   4
 UBDSV4 SAVING " GHOST-NODE HEAD" ON UNIT7013 AT TIME STEP    1, STRESS PERIOD   4
1
  FLUX ACROSS PARENT-CHILD INTERFACE AT TIME STEP  1 IN STRESS PERIOD    4
  ------------------------------------------------------------------------
 G-N FLUX        PARENT        CHILD         DIFFERENCE      % DIFFERENCE
  RATE IN:      3.7632E+03    3.7631E+03     1.3184E-01        0.0035
 RATE OUT:      1.4853E+03    1.4849E+03     3.1189E-01        0.0210
 
 SOLVING FOR HEAD 
                                                   Max.-Head-Change                        Max.-Flux-Residual
  Residual-Control   Outer-Iter.   Inner-Iter.     Column Row Layer    Max.-Head-Change    Column Row Layer    Max.-Flux-Residual            L2-New               L2-Old           Solver-Max-Delh
          0                 1          10             1   14     1       0.8599400127E+00       1   14    1       0.6535963451E+03      0.1140644826E+04      0.3689575595E-01      0.8599400127E+00
          0                 2           8             1   14     1      -0.7507298305E-01       1   14    1      -0.6805879453E+02      0.1160140810E+03      0.1140644826E+04     -0.7507298305E-01
          0                 3           6             1   14     1      -0.3823505849E-02       1   14    1      -0.3475979417E+01      0.5873295006E+01      0.1160140810E+03     -0.3823505849E-02
          0                 4           4             1   14     1      -0.1944925978E-03       1   14    1      -0.1749244136E+00      0.2960763642E+00      0.5873295006E+01     -0.1944925978E-03
          0                 5           3             6   12     1      -0.1041594052E-04       1   14    1      -0.9545862093E-02      0.2588290810E-01      0.2960763642E+00     -0.1041594052E-04

    ------------------------------------------------
       NWT REQUIRED            5 OUTER ITERATIONS 
       AND A TOTAL OF         31 INNER ITERATIONS.
    ------------------------------------------------
                                                   Max.-Head-Change                        Max.-Flux-Residual
  Residual-Control   Outer-Iter.   Inner-Iter.     Column Row Layer    Max.-Head-Change    Column Row Layer    Max.-Flux-Residual            L2-New               L2-Old           Solver-Max-Delh
          0                 1           9             2   14     1      -0.4093718768E+00       1   14    1      -0.4463024970E+03      0.6583087076E+03      0.2588290810E-01     -0.4093718768E+00
          0                 2           7             2   14     1       0.3441517274E-01       1   14    1       0.4282842640E+02      0.6327651453E+02      0.6583087076E+03      0.3441517274E-01
          0                 3           5             2   14     1       0.1736448520E-02       1   14    1       0.2168068928E+01      0.3170017432E+01      0.6327651453E+02      0.1736448520E-02
          0                 4           3             2   14     1       0.8661415866E-04       1   14    1       0.1097306747E+00      0.1613117900E+00      0.3170017432E+01      0.8661415866E-04

    ------------------------------------------------
       NWT REQUIRED            4 OUTER ITERATIONS 
       AND A TOTAL OF         24 INNER ITERATIONS.
    ------------------------------------------------
                                                   Max.-Head-Change                        Max.-Flux-Residual
  Residual-Control   Outer-Iter.   Inner-Iter.     Column Row Layer    Max.-Head-Change    Column Row Layer    Max.-Flux-Residual            L2-New               L2-Old           Solver-Max-Delh
          0                 1           8             6    5     1       0.4937275751E-01       6    1    1       0.3600620888E+02      0.9520148111E+02      0.1613117900E+00      0.4937275751E-01
          0                 2           7             6    5     1      -0.4282916042E-02       6    1    1      -0.3612627094E+01      0.9546012059E+01      0.9520148111E+02     -0.4282916042E-02
          0                 3           4             6    4     1      -0.2100051130E-03       6    1    1      -0.1792267340E+00      0.4740132453E+00      0.9546012059E+01     -0.2100051130E-03
          0                 4           3             3    6     3      -0.1096058249E-04       6   12    1      -0.8412033378E-02      0.2965826075E-01      0.4740132453E+00     -0.1096058249E-04

    ------------------------------------------------
       NWT REQUIRED            4 OUTER ITERATIONS 
       AND A TOTAL OF         22 INNER ITERATIONS.
    ------------------------------------------------
                                                   Max.-Head-Change                        Max.-Flux-Residual
  Residual-Control   Outer-Iter.   Inner-Iter.     Column Row Layer    Max.-Head-Change    Column Row Layer    Max.-Flux-Residual            L2-New               L2-Old           Solver-Max-Delh
          0                 1           8             4    1     2       0.2935623808E-01       6    1    1       0.2287425064E+02      0.5661679371E+02      0.2965826075E-01      0.2935623808E-01
          0                 2           6             4    1     2      -0.2536285365E-02       6    1    1      -0.2290806041E+01      0.5665203666E+01      0.5661679371E+02     -0.2536285365E-02
          0                 3           4             4    1     2      -0.1263719546E-03       6    1    1      -0.1162745102E+00      0.2805389293E+00      0.5665203666E+01     -0.1263719546E-03
          0                 4           2             6    2     1      -0.8797365437E-05       1   12    1      -0.8818604751E-02      0.2093118268E-01      0.2805389293E+00     -0.8797365437E-05

    ------------------------------------------------
       NWT REQUIRED            4 OUTER ITERATIONS 
       AND A TOTAL OF         20 INNER ITERATIONS.
    ------------------------------------------------
                                                   Max.-Head-Change                        Max.-Flux-Residual
  Residual-Control   Outer-Iter.   Inner-Iter.     Column Row Layer    Max.-Head-Change    Column Row Layer    Max.-Flux-Residual            L2-New               L2-Old           Solver-Max-Delh
          0                 1           7             2    1     2       0.2142975635E-01       6    1    1       0.1272622966E+02      0.3152811638E+02      0.2093118268E-01      0.2142975635E-01
          0                 2           6             2    1     2      -0.1851879586E-02       6    1    1      -0.1272668022E+01      0.3159606350E+01      0.3152811638E+02     -0.1851879586E-02
          0                 3           4             2    1     2      -0.9238251760E-04       6    1    1      -0.7064889732E-01      0.1608439689E+00      0.3159606350E+01     -0.9238251760E-04

    ------------------------------------------------
       NWT REQUIRED            3 OUTER ITERATIONS 
       AND A TOTAL OF         17 INNER ITERATIONS.
    ------------------------------------------------
                                                   Max.-Head-Change                        Max.-Flux-Residual
  Residual-Control   Outer-Iter.   Inner-Iter.     Column Row Layer    Max.-Head-Change    Column Row Layer    Max.-Flux-Residual            L2-New               L2-Old           Solver-Max-Delh
          0                 1           7             1    1     2       0.1247069684E-01       3    1    1       0.6485613741E+01      0.1625656073E+02      0.1608439689E+00      0.1247069684E-01
          0                 2           5             1    1     2      -0.1077898767E-02       2    1    1      -0.6560973412E+00      0.1633477963E+01      0.1625656073E+02     -0.1077898767E-02
          0                 3           3             1    1     2      -0.5272342255E-04       3    1    1      -0.3453182499E-01      0.7635730328E-01      0.1633477963E+01     -0.5272342255E-04

    ------------------------------------------------
       NWT REQUIRED            3 OUTER ITERATIONS 
       AND A TOTAL OF         15 INNER ITERATIONS.
    ------------------------------------------------
                                                   Max.-Head-Change                        Max.-Flux-Residual
  Residual-Control   Outer-Iter.   Inner-Iter.     Column Row Layer    Max.-Head-Change    Column Row Layer    Max.-Flux-Residual            L2-New               L2-Old           Solver-Max-Delh
          0                 1           6             1    1     2       0.5994301373E-02       1    1    1       0.3245697043E+01      0.7795473471E+01      0.7635730328E-01      0.5994301373E-02
          0                 2           5             1    1     2      -0.5179648283E-03       3    1    1      -0.3296055341E+00      0.7802134077E+00      0.7795473471E+01     -0.5179648283E-03
          0                 3           3             1    1     2      -0.2613688068E-04       3    1    1      -0.1795604895E-01      0.4417878149E-01      0.7802134077E+00     -0.2613688068E-04

    ------------------------------------------------
       NWT REQUIRED            3 OUTER ITERATIONS 
       AND A TOTAL OF         14 INNER ITERATIONS.
    ------------------------------------------------
                                                   Max.-Head-Change                        Max.-Flux-Residual
  Residual-Control   Outer-Iter.   Inner-Iter.     Column Row Layer    Max.-Head-Change    Column Row Layer    Max.-Flux-Residual            L2-New               L2-Old           Solver-Max-Delh
          0                 1           6             1    1     2       0.2226375787E-02       1   15    1      -0.1328625662E+01      0.3322244154E+01      0.4417878149E-01      0.2226375787E-02
          0                 2           4             1    1     2      -0.1922044848E-03       3    1    1      -0.1312497117E+00      0.3343093800E+00      0.3322244154E+01     -0.1922044848E-03
          0                 3           2             1    1     2      -0.8776345025E-05       6    8    1       0.8116136247E-02      0.2197319503E-01      0.3343093800E+00     -0.8776345025E-05

    ------------------------------------------------
       NWT REQUIRED            3 OUTER ITERATIONS 
       AND A TOTAL OF         12 INNER ITERATIONS.
    ------------------------------------------------
                                                   Max.-Head-Change                        Max.-Flux-Residual
  Residual-Control   Outer-Iter.   Inner-Iter.     Column Row Layer    Max.-Head-Change    Column Row Layer    Max.-Flux-Residual            L2-New               L2-Old           Solver-Max-Delh
          0                 1           5             1   15     1      -0.6359869380E-03       1   15    1      -0.6176892100E+00      0.1214407776E+01      0.2197319503E-01     -0.6359869380E-03
          0                 2           3             1   15     1       0.5764021951E-04       1   15    1       0.6684056472E-01      0.1266081537E+00      0.1214407776E+01      0.5764021951E-04

    ------------------------------------------------
       NWT REQUIRED            2 OUTER ITERATIONS 
       AND A TOTAL OF          8 INNER ITERATIONS.
    ------------------------------------------------
                                                   Max.-Head-Change                        Max.-Flux-Residual
  Residual-Control   Outer-Iter.   Inner-Iter.     Column Row Layer    Max.-Head-Change    Column Row Layer    Max.-Flux-Residual            L2-New               L2-Old           Solver-Max-Delh
          0                 1           4             1   11     3       0.3139254776E-03       1   15    1      -0.2274075854E+00      0.5253660886E+00      0.1266081537E+00      0.3139254776E-03
          0                 2           3             1   11     3      -0.2875575865E-04       1   15    1       0.3052421071E-01      0.5906764331E-01      0.5253660886E+00     -0.2875575865E-04

    ------------------------------------------------
       NWT REQUIRED            2 OUTER ITERATIONS 
       AND A TOTAL OF          7 INNER ITERATIONS.
    ------------------------------------------------
                                                   Max.-Head-Change                        Max.-Flux-Residual
  Residual-Control   Outer-Iter.   Inner-Iter.     Column Row Layer    Max.-Head-Change    Column Row Layer    Max.-Flux-Residual            L2-New               L2-Old           Solver-Max-Delh
          0                 1           4             2    1     2      -0.2592329908E-03       5    1    1      -0.1395480913E+00      0.3822089613E+00      0.5906764331E-01     -0.2592329908E-03
          0                 2           3             4    1     1       0.2355902759E-04       4    1    1       0.2061541891E-01      0.4572426135E-01      0.3822089613E+00      0.2355902759E-04

    ------------------------------------------------
       NWT REQUIRED            2 OUTER ITERATIONS 
       AND A TOTAL OF          7 INNER ITERATIONS.
    ------------------------------------------------
                                                   Max.-Head-Change                        Max.-Flux-Residual
  Residual-Control   Outer-Iter.   Inner-Iter.     Column Row Layer    Max.-Head-Change    Column Row Layer    Max.-Flux-Residual            L2-New               L2-Old           Solver-Max-Delh
          0                 1           4             1    1     2      -0.1959641511E-03       2    1    1      -0.1062545544E+00      0.2648600514E+00      0.4572426135E-01     -0.1959641511E-03
          0                 2           3             1    1     1       0.2304292987E-04       2    1    1       0.1669626869E-01      0.3763069857E-01      0.2648600514E+00      0.2304292987E-04

    ------------------------------------------------
       NWT REQUIRED            2 OUTER ITERATIONS 
       AND A TOTAL OF          7 INNER ITERATIONS.
    ------------------------------------------------
                                                   Max.-Head-Change                        Max.-Flux-Residual
  Residual-Control   Outer-Iter.   Inner-Iter.     Column Row Layer    Max.-Head-Change    Column Row Layer    Max.-Flux-Residual            L2-New               L2-Old           Solver-Max-Delh
          0                 1           4             1    1     2      -0.1078627530E-03       6    1    1      -0.7359949138E-01      0.1505039429E+00      0.3763069857E-01     -0.1078627530E-03
          0                 2           2             1    1     2       0.7485621811E-05       4    1    1       0.8511410677E-02      0.1684436615E-01      0.1505039429E+00      0.7485621811E-05

    ------------------------------------------------
       NWT REQUIRED            2 OUTER ITERATIONS 
       AND A TOTAL OF          6 INNER ITERATIONS.
    ------------------------------------------------

 OUTPUT CONTROL FOR STRESS PERIOD      4   TIME STEP     2
    SAVE BUDGET
 UBDSV1 SAVING "         STORAGE" ON UNIT7013 AT TIME STEP    2, STRESS PERIOD   4
 UBDSV2 SAVING "   CONSTANT HEAD" ON UNIT7013 AT TIME STEP    2, STRESS PERIOD   4
 UBDSV1 SAVING "FLOW RIGHT FACE " ON UNIT7013 AT TIME STEP    2, STRESS PERIOD   4
 UBDSV1 SAVING "FLOW FRONT FACE " ON UNIT7013 AT TIME STEP    2, STRESS PERIOD   4
 UBDSV1 SAVING "FLOW LOWER FACE " ON UNIT7013 AT TIME STEP    2, STRESS PERIOD   4
 UBDSV4 SAVING "  STREAM LEAKAGE" ON UNIT7013 AT TIME STEP    2, STRESS PERIOD   4



 
 
 
 
 
 
 
 
 UBDSV3 SAVING "FARM  NET  RECH." ON UNIT7013 AT TIME STEP    2, STRESS PERIOD   4
 UBDSV4 SAVING " GHOST-NODE HEAD" ON UNIT7013 AT TIME STEP    2, STRESS PERIOD   4
1
  VOLUMETRIC BUDGET FOR ENTIRE MODEL AT END OF TIME STEP    2 IN STRESS PERIOD      4
  ------------------------------------------------------------------------------

     CUMULATIVE VOLUMES      L**3       RATES FOR THIS TIME STEP      L**3/T
     ------------------                 ------------------------

           IN:                                      IN:
           ---                                      ---
             STORAGE =       62998.4023               STORAGE =           0.0000
       CONSTANT HEAD =           0.0000         CONSTANT HEAD =           0.0000
      STREAM LEAKAGE =      211136.6250        STREAM LEAKAGE =         263.5500
          FARM WELLS =           0.0000            FARM WELLS =           0.0000
    FARM  NET  RECH. =       94420.1484      FARM  NET  RECH. =         175.7000
     GHOST-NODE HEAD =     3605296.5000       GHOST-NODE HEAD =        3344.0100

            TOTAL IN =     3973851.7500              TOTAL IN =        3783.2600

          OUT:                                     OUT:
          ----                                     ----
             STORAGE =     3896918.2500               STORAGE =        1727.0710
       CONSTANT HEAD =           0.0000         CONSTANT HEAD =           0.0000
      STREAM LEAKAGE =           0.0000        STREAM LEAKAGE =           0.0000
          FARM WELLS =           0.0000            FARM WELLS =           0.0000
    FARM  NET  RECH. =           0.0000      FARM  NET  RECH. =           0.0000
     GHOST-NODE HEAD =       76932.0156       GHOST-NODE HEAD =        2056.1897

           TOTAL OUT =     3973850.2500             TOTAL OUT =        3783.2607

            IN - OUT =           1.5000              IN - OUT =      -7.3242E-04

 PERCENT DISCREPANCY =           0.00     PERCENT DISCREPANCY =          -0.00






          TIME SUMMARY AT END OF TIME STEP     2 IN STRESS PERIOD      4
                    SECONDS     MINUTES      HOURS       DAYS        YEARS
                    -----------------------------------------------------------
   TIME STEP LENGTH 1.31414E+06  21902.      365.04      15.210     4.16427E-02
 STRESS PERIOD TIME 2.62829E+06  43805.      730.08      30.420     8.32854E-02
         TOTAL TIME 1.05132E+07 1.75219E+05  2920.3      121.68     0.33314    
1
1
  FLUX ACROSS PARENT-CHILD INTERFACE AT TIME STEP  2 IN STRESS PERIOD    4
  ------------------------------------------------------------------------
 G-N FLUX        PARENT        CHILD         DIFFERENCE      % DIFFERENCE
  RATE IN:      3.3439E+03    3.3440E+03    -1.2378E-01       -0.0037
 RATE OUT:      2.0562E+03    2.0562E+03    -1.3428E-02       -0.0007
1
                            STRESS PERIOD NO.      5, LENGTH =   30.42000    
                            -----------------------------------------------

                              NUMBER OF TIME STEPS =     2

                               MULTIPLIER FOR DELT =     1.000

                            INITIAL TIME STEP SIZE =   15.21000    

 REUSING STREAM SEGMENT DATA FROM LAST STRESS PERIOD

 Parameter:  WELLS1
 WELL NO. LAYER    ROW    COL  F-WELL ID    FARM ID         QMAX         QMAXRESET       LGRGRID         
 --------------------------------------------------------------------------------------------------------
       1      1      2      2          5          2      2.0000E+03              0              0
       2      1      5      5          6          2      1.0000E+03              0              0

 NUMBER OF ACTIVE FARM WELLS:        2

 FARM-ID  NUMBER OF WELLS PER FARM  TOTAL MAX.CAPACITY PER FARM
       1                         0                       0.0000
       2                         2                    3000.0000
       3                         0                       0.0000
       4                         0                       0.0000
       5                         0                       0.0000
       6                         0                       0.0000
       7                         0                       0.0000
       8                         0                       0.0000

Transpiratory and Evaporative Fractions of Crop Consumptive Use
    % Transpiration % Evap. for Precip. % Evap. for Irrig.
    3          0.000          1.000          1.000
    5          0.924          0.076          0.000

FRACTIONS OF IN-EFFICIENT LOSSES TO SW-RUNOFF FROM 
     PRECIPITATION:  IRRIGATION:
    3          0.600          0.500
    5          0.500          0.000
 
 SOLVING FOR HEAD 
                                                   Max.-Head-Change                        Max.-Flux-Residual
  Residual-Control   Outer-Iter.   Inner-Iter.     Column Row Layer    Max.-Head-Change    Column Row Layer    Max.-Flux-Residual            L2-New               L2-Old           Solver-Max-Delh
          0                 1          10             4   14     1       0.1182549869E+01       6   14    1       0.7217325996E+03      0.1570847346E+04      0.1684436615E-01      0.1182549869E+01
          0                 2           9             4   14     1      -0.1061807290E+00       6   14    1      -0.7701423257E+02      0.1661934244E+03      0.1570847346E+04     -0.1061807290E+00
          0                 3           6             4   14     1      -0.5335379499E-02       6   14    1      -0.3792839956E+01      0.8369542403E+01      0.1661934244E+03     -0.5335379499E-02
          0                 4           5             4   14     1      -0.2656781591E-03       6   14    1      -0.1857568814E+00      0.4190182368E+00      0.8369542403E+01     -0.2656781591E-03
          0                 5           3             4   14     1      -0.1512365587E-04       1   14    1      -0.8866393822E-02      0.2691019983E-01      0.4190182368E+00     -0.1512365587E-04

    ------------------------------------------------
       NWT REQUIRED            5 OUTER ITERATIONS 
       AND A TOTAL OF         33 INNER ITERATIONS.
    ------------------------------------------------
                                                   Max.-Head-Change                        Max.-Flux-Residual
  Residual-Control   Outer-Iter.   Inner-Iter.     Column Row Layer    Max.-Head-Change    Column Row Layer    Max.-Flux-Residual            L2-New               L2-Old           Solver-Max-Delh
          0                 1           9             5   14     1      -0.5386760538E+00       4   14    1      -0.5258010859E+03      0.9667005608E+03      0.2691019983E-01     -0.5386760538E+00
          0                 2           7             5   14     1       0.4519674804E-01       4   14    1       0.4965759570E+02      0.9256360537E+02      0.9667005608E+03      0.4519674804E-01
          0                 3           6             5   14     1       0.2244940679E-02       4   14    1       0.2466289285E+01      0.4598611869E+01      0.9256360537E+02      0.2244940679E-02
          0                 4           3             5   14     1       0.1152159135E-03       4   14    1       0.1232999244E+00      0.2303184589E+00      0.4598611869E+01      0.1152159135E-03
          0                 5           2             3    1     1      -0.5282721961E-05       3    1    1      -0.7690888597E-02      0.1715354043E-01      0.2303184589E+00     -0.5282721961E-05

    ------------------------------------------------
       NWT REQUIRED            5 OUTER ITERATIONS 
       AND A TOTAL OF         27 INNER ITERATIONS.
    ------------------------------------------------
                                                   Max.-Head-Change                        Max.-Flux-Residual
  Residual-Control   Outer-Iter.   Inner-Iter.     Column Row Layer    Max.-Head-Change    Column Row Layer    Max.-Flux-Residual            L2-New               L2-Old           Solver-Max-Delh
          0                 1           8             6   14     1      -0.9869215433E-01       6   15    1      -0.8594225808E+02      0.1994781126E+03      0.1715354043E-01     -0.9869215433E-01
          0                 2           6             6   14     1       0.8530501516E-02       6   15    1       0.8577392713E+01      0.1995630191E+02      0.1994781126E+03      0.8530501516E-02
          0                 3           5             6   14     1       0.4261648278E-03       6   15    1       0.4391547841E+00      0.9985405445E+00      0.1995630191E+02      0.4261648278E-03
          0                 4           3             1    1     1      -0.2533735767E-04       6   13    1       0.2242665790E-01      0.5636048360E-01      0.9985405445E+00     -0.2533735767E-04

    ------------------------------------------------
       NWT REQUIRED            4 OUTER ITERATIONS 
       AND A TOTAL OF         22 INNER ITERATIONS.
    ------------------------------------------------
                                                   Max.-Head-Change                        Max.-Flux-Residual
  Residual-Control   Outer-Iter.   Inner-Iter.     Column Row Layer    Max.-Head-Change    Column Row Layer    Max.-Flux-Residual            L2-New               L2-Old           Solver-Max-Delh
          0                 1           7             6   14     1      -0.5582480451E-01       6   15    1      -0.5130084198E+02      0.9393815346E+02      0.5636048360E-01     -0.5582480451E-01
          0                 2           6             6   14     1       0.4831897615E-02       6   15    1       0.5126624663E+01      0.9402445343E+01      0.9393815346E+02      0.4831897615E-02
          0                 3           4             6   14     1       0.2433657132E-03       6   15    1       0.2597543548E+00      0.4727719965E+00      0.9402445343E+01      0.2433657132E-03
          0                 4           2             6   14     1       0.1106287419E-04       6   13    1       0.1192437508E-01      0.2648094243E-01      0.4727719965E+00      0.1106287419E-04

    ------------------------------------------------
       NWT REQUIRED            4 OUTER ITERATIONS 
       AND A TOTAL OF         19 INNER ITERATIONS.
    ------------------------------------------------
                                                   Max.-Head-Change                        Max.-Flux-Residual
  Residual-Control   Outer-Iter.   Inner-Iter.     Column Row Layer    Max.-Head-Change    Column Row Layer    Max.-Flux-Residual            L2-New               L2-Old           Solver-Max-Delh
          0                 1           7             6   15     1      -0.2688428156E-01       6   15    1      -0.2632045922E+02      0.4372481374E+02      0.2648094243E-01     -0.2688428156E-01
          0                 2           5             6   15     1       0.2329762336E-02       6   15    1       0.2639898804E+01      0.4384945745E+01      0.4372481374E+02      0.2329762336E-02
          0                 3           3             6   14     1       0.1110105760E-03       6   15    1       0.1229911628E+00      0.2116722380E+00      0.4384945745E+01      0.1110105760E-03
          0                 4           2             6   15     1       0.1143319869E-04       6   15    1       0.1433257200E-01      0.2479992510E-01      0.2116722380E+00      0.1143319869E-04

    ------------------------------------------------
       NWT REQUIRED            4 OUTER ITERATIONS 
       AND A TOTAL OF         17 INNER ITERATIONS.
    ------------------------------------------------
                                                   Max.-Head-Change                        Max.-Flux-Residual
  Residual-Control   Outer-Iter.   Inner-Iter.     Column Row Layer    Max.-Head-Change    Column Row Layer    Max.-Flux-Residual            L2-New               L2-Old           Solver-Max-Delh
          0                 1           6             6   15     1      -0.1204614985E-01       6   15    1      -0.1176383499E+02      0.2148525775E+02      0.2479992510E-01     -0.1204614985E-01
          0                 2           5             6   15     1       0.1037971325E-02       6   15    1       0.1173339464E+01      0.2146263376E+01      0.2148525775E+02      0.1037971325E-02
          0                 3           3             6   15     1       0.5647991655E-04       6   15    1       0.6482979812E-01      0.1105005121E+00      0.2146263376E+01      0.5647991655E-04

    ------------------------------------------------
       NWT REQUIRED            3 OUTER ITERATIONS 
       AND A TOTAL OF         14 INNER ITERATIONS.
    ------------------------------------------------
                                                   Max.-Head-Change                        Max.-Flux-Residual
  Residual-Control   Outer-Iter.   Inner-Iter.     Column Row Layer    Max.-Head-Change    Column Row Layer    Max.-Flux-Residual            L2-New               L2-Old           Solver-Max-Delh
          0                 1           6             1    1     1      -0.7639871694E-02       2    1    1      -0.4597696715E+01      0.1094388032E+02      0.1105005121E+00     -0.7639871694E-02
          0                 2           5             1    1     1       0.6628252565E-03       1    1    1       0.4633692818E+00      0.1094921460E+01      0.1094388032E+02      0.6628252565E-03
          0                 3           3             1    1     2       0.2647405366E-04       6   15    1       0.2676975357E-01      0.5787412146E-01      0.1094921460E+01      0.2647405366E-04

    ------------------------------------------------
       NWT REQUIRED            3 OUTER ITERATIONS 
       AND A TOTAL OF         14 INNER ITERATIONS.
    ------------------------------------------------
                                                   Max.-Head-Change                        Max.-Flux-Residual
  Residual-Control   Outer-Iter.   Inner-Iter.     Column Row Layer    Max.-Head-Change    Column Row Layer    Max.-Flux-Residual            L2-New               L2-Old           Solver-Max-Delh
          0                 1           6             1    1     1      -0.4231671040E-02       3    1    1      -0.2496201770E+01      0.5737901089E+01      0.5787412146E-01     -0.4231671040E-02
          0                 2           4             1    1     1       0.3659439552E-03       3    1    1       0.2535241668E+00      0.5750637052E+00      0.5737901089E+01      0.3659439552E-03
          0                 3           3             1    1     1       0.1987281259E-04       1    1    1       0.1577926893E-01      0.3547032124E-01      0.5750637052E+00      0.1987281259E-04

    ------------------------------------------------
       NWT REQUIRED            3 OUTER ITERATIONS 
       AND A TOTAL OF         13 INNER ITERATIONS.
    ------------------------------------------------
                                                   Max.-Head-Change                        Max.-Flux-Residual
  Residual-Control   Outer-Iter.   Inner-Iter.     Column Row Layer    Max.-Head-Change    Column Row Layer    Max.-Flux-Residual            L2-New               L2-Old           Solver-Max-Delh
          0                 1           5             1    1     1      -0.1817238480E-02       1   15    1      -0.1130408939E+01      0.3042358287E+01      0.3547032124E-01     -0.1817238480E-02
          0                 2           4             1    1     1       0.1548090651E-03       2    1    1       0.1120952073E+00      0.3028876400E+00      0.3042358287E+01      0.1548090651E-03
          0                 3           2             6    5     1       0.8526318606E-05       5   15    1       0.8979992534E-02      0.2367927068E-01      0.3028876400E+00      0.8526318606E-05

    ------------------------------------------------
       NWT REQUIRED            3 OUTER ITERATIONS 
       AND A TOTAL OF         11 INNER ITERATIONS.
    ------------------------------------------------
                                                   Max.-Head-Change                        Max.-Flux-Residual
  Residual-Control   Outer-Iter.   Inner-Iter.     Column Row Layer    Max.-Head-Change    Column Row Layer    Max.-Flux-Residual            L2-New               L2-Old           Solver-Max-Delh
          0                 1           5             1   14     1      -0.7348801554E-03       1   15    1      -0.6664909542E+00      0.1538821753E+01      0.2367927068E-01     -0.7348801554E-03
          0                 2           4             1   14     1       0.6499240018E-04       1   15    1       0.7208480820E-01      0.1576855220E+00      0.1538821753E+01      0.6499240018E-04

    ------------------------------------------------
       NWT REQUIRED            2 OUTER ITERATIONS 
       AND A TOTAL OF          9 INNER ITERATIONS.
    ------------------------------------------------
                                                   Max.-Head-Change                        Max.-Flux-Residual
  Residual-Control   Outer-Iter.   Inner-Iter.     Column Row Layer    Max.-Head-Change    Column Row Layer    Max.-Flux-Residual            L2-New               L2-Old           Solver-Max-Delh
          0                 1           5             1   14     1      -0.3229770233E-03       1   15    1      -0.3031570009E+00      0.7192539083E+00      0.1576855220E+00     -0.3229770233E-03
          0                 2           3             1   14     1       0.3016339539E-04       1   15    1       0.2814934228E-01      0.7260303691E-01      0.7192539083E+00      0.3016339539E-04

    ------------------------------------------------
       NWT REQUIRED            2 OUTER ITERATIONS 
       AND A TOTAL OF          8 INNER ITERATIONS.
    ------------------------------------------------
                                                   Max.-Head-Change                        Max.-Flux-Residual
  Residual-Control   Outer-Iter.   Inner-Iter.     Column Row Layer    Max.-Head-Change    Column Row Layer    Max.-Flux-Residual            L2-New               L2-Old           Solver-Max-Delh
          0                 1           4             1    1     2       0.1377644704E-03       6   15    1       0.1261608357E+00      0.3505027795E+00      0.7260303691E-01      0.1377644704E-03
          0                 2           3             6    6     1       0.1367686969E-04       6   15    1      -0.1851833798E-01      0.4289587876E-01      0.3505027795E+00      0.1367686969E-04

    ------------------------------------------------
       NWT REQUIRED            2 OUTER ITERATIONS 
       AND A TOTAL OF          7 INNER ITERATIONS.
    ------------------------------------------------

 OUTPUT CONTROL FOR STRESS PERIOD      5   TIME STEP     1
    SAVE BUDGET
 UBDSV1 SAVING "         STORAGE" ON UNIT7013 AT TIME STEP    1, STRESS PERIOD   5
 UBDSV2 SAVING "   CONSTANT HEAD" ON UNIT7013 AT TIME STEP    1, STRESS PERIOD   5
 UBDSV1 SAVING "FLOW RIGHT FACE " ON UNIT7013 AT TIME STEP    1, STRESS PERIOD   5
 UBDSV1 SAVING "FLOW FRONT FACE " ON UNIT7013 AT TIME STEP    1, STRESS PERIOD   5
 UBDSV1 SAVING "FLOW LOWER FACE " ON UNIT7013 AT TIME STEP    1, STRESS PERIOD   5
 UBDSV4 SAVING "  STREAM LEAKAGE" ON UNIT7013 AT TIME STEP    1, STRESS PERIOD   5



 
 
 
 
 
 
 
 
 UBDSV3 SAVING "FARM  NET  RECH." ON UNIT7013 AT TIME STEP    1, STRESS PERIOD   5
 UBDSV4 SAVING " GHOST-NODE HEAD" ON UNIT7013 AT TIME STEP    1, STRESS PERIOD   5
1
  FLUX ACROSS PARENT-CHILD INTERFACE AT TIME STEP  1 IN STRESS PERIOD    5
  ------------------------------------------------------------------------
 G-N FLUX        PARENT        CHILD         DIFFERENCE      % DIFFERENCE
  RATE IN:      2.6472E+03    2.6463E+03     8.8379E-01        0.0334
 RATE OUT:      2.4823E+03    2.4824E+03    -9.6436E-02       -0.0039
 
 SOLVING FOR HEAD 
                                                   Max.-Head-Change                        Max.-Flux-Residual
  Residual-Control   Outer-Iter.   Inner-Iter.     Column Row Layer    Max.-Head-Change    Column Row Layer    Max.-Flux-Residual            L2-New               L2-Old           Solver-Max-Delh
          0                 1          10             5   14     1       0.1008796114E+01       6   14    1       0.7016655451E+03      0.1226787208E+04      0.4289587876E-01      0.1008796114E+01
          0                 2           8             6   14     1      -0.7499008879E-01       5   14    1      -0.7672387455E+02      0.1469465511E+03      0.1226787208E+04     -0.7499008879E-01
          0                 3           7             4   14     1      -0.2327757604E-01       5   14    1      -0.2326760427E+02      0.3594235571E+02      0.1469465511E+03     -0.2327757604E-01
          0                 4           5             4   14     1      -0.1162031056E-02       5   14    1      -0.1168989559E+01      0.1806387316E+01      0.3594235571E+02     -0.1162031056E-02
          0                 5           3             4   14     1      -0.5815849504E-04       5   14    1      -0.5840349960E-01      0.9287435286E-01      0.1806387316E+01     -0.5815849504E-04

    ------------------------------------------------
       NWT REQUIRED            5 OUTER ITERATIONS 
       AND A TOTAL OF         33 INNER ITERATIONS.
    ------------------------------------------------
                                                   Max.-Head-Change                        Max.-Flux-Residual
  Residual-Control   Outer-Iter.   Inner-Iter.     Column Row Layer    Max.-Head-Change    Column Row Layer    Max.-Flux-Residual            L2-New               L2-Old           Solver-Max-Delh
          0                 1           9             5   14     1      -0.5518435326E+00       4   14    1      -0.5258031877E+03      0.9707303431E+03      0.9287435286E-01     -0.5518435326E+00
          0                 2           7             5   14     1       0.4629887566E-01       4   14    1       0.4954779386E+02      0.9296858234E+02      0.9707303431E+03      0.4629887566E-01
          0                 3           6             5   14     1       0.2305066443E-02       4   14    1       0.2460032437E+01      0.4614532047E+01      0.9296858234E+02      0.2305066443E-02
          0                 4           3             5   14     1       0.1153968581E-03       4   14    1       0.1229024956E+00      0.2302246855E+00      0.4614532047E+01      0.1153968581E-03
          0                 5           2             3    1     1      -0.5370555769E-05       1   15    1      -0.8786742983E-02      0.1779531943E-01      0.2302246855E+00     -0.5370555769E-05

    ------------------------------------------------
       NWT REQUIRED            5 OUTER ITERATIONS 
       AND A TOTAL OF         27 INNER ITERATIONS.
    ------------------------------------------------
                                                   Max.-Head-Change                        Max.-Flux-Residual
  Residual-Control   Outer-Iter.   Inner-Iter.     Column Row Layer    Max.-Head-Change    Column Row Layer    Max.-Flux-Residual            L2-New               L2-Old           Solver-Max-Delh
          0                 1           8             1    1     1       0.1379116625E+00       6   15    1      -0.9590333166E+02      0.2317093566E+03      0.1779531943E-01      0.1379116625E+00
          0                 2           7             1    1     1      -0.1197772462E-01       6   15    1       0.9584039805E+01      0.2325012021E+02      0.2317093566E+03     -0.1197772462E-01
          0                 3           5             1    1     1      -0.5948323454E-03       6   15    1       0.4752517227E+00      0.1157932310E+01      0.2325012021E+02     -0.5948323454E-03
          0                 4           3             1    1     1      -0.2556668231E-04       6   15    1       0.2451268272E-01      0.5672900937E-01      0.1157932310E+01     -0.2556668231E-04

    ------------------------------------------------
       NWT REQUIRED            4 OUTER ITERATIONS 
       AND A TOTAL OF         23 INNER ITERATIONS.
    ------------------------------------------------
                                                   Max.-Head-Change                        Max.-Flux-Residual
  Residual-Control   Outer-Iter.   Inner-Iter.     Column Row Layer    Max.-Head-Change    Column Row Layer    Max.-Flux-Residual            L2-New               L2-Old           Solver-Max-Delh
          0                 1           8             6   14     1      -0.6022533352E-01       6   15    1      -0.5802554902E+02      0.1181349523E+03      0.5672900937E-01     -0.6022533352E-01
          0                 2           6             6   14     1       0.5218299493E-02       6   15    1       0.5793935881E+01      0.1182442746E+02      0.1181349523E+03      0.5218299493E-02
          0                 3           5             6   14     1       0.2582415867E-03       6   15    1       0.2930162255E+00      0.5887576447E+00      0.1182442746E+02      0.2582415867E-03
          0                 4           2             6   14     1       0.1126774348E-04       1   15    1      -0.1490419207E-01      0.3591266838E-01      0.5887576447E+00      0.1126774348E-04

    ------------------------------------------------
       NWT REQUIRED            4 OUTER ITERATIONS 
       AND A TOTAL OF         21 INNER ITERATIONS.
    ------------------------------------------------
                                                   Max.-Head-Change                        Max.-Flux-Residual
  Residual-Control   Outer-Iter.   Inner-Iter.     Column Row Layer    Max.-Head-Change    Column Row Layer    Max.-Flux-Residual            L2-New               L2-Old           Solver-Max-Delh
          0                 1           7             6   15     1      -0.3033582422E-01       6   15    1      -0.2962275067E+02      0.5253790738E+02      0.3591266838E-01     -0.3033582422E-01
          0                 2           6             6   15     1       0.2623096812E-02       6   15    1       0.2962226136E+01      0.5256240110E+01      0.5253790738E+02      0.2623096812E-02
          0                 3           4             6   15     1       0.1325751808E-03       6   15    1       0.1531301556E+00      0.2632685646E+00      0.5256240110E+01      0.1325751808E-03
          0                 4           2             6   13     1       0.5998237503E-05       6   13    1       0.9141413029E-02      0.1636759140E-01      0.2632685646E+00      0.5998237503E-05

    ------------------------------------------------
       NWT REQUIRED            4 OUTER ITERATIONS 
       AND A TOTAL OF         19 INNER ITERATIONS.
    ------------------------------------------------
                                                   Max.-Head-Change                        Max.-Flux-Residual
  Residual-Control   Outer-Iter.   Inner-Iter.     Column Row Layer    Max.-Head-Change    Column Row Layer    Max.-Flux-Residual            L2-New               L2-Old           Solver-Max-Delh
          0                 1           6             6   15     1      -0.1354783697E-01       6   15    1      -0.1300942765E+02      0.2249943687E+02      0.1636759140E-01     -0.1354783697E-01
          0                 2           5             6   15     1       0.1169815039E-02       6   15    1       0.1300177815E+01      0.2248995437E+01      0.2249943687E+02      0.1169815039E-02
          0                 3           3             6   15     1       0.6178970231E-04       6   15    1       0.7066798047E-01      0.1183211364E+00      0.2248995437E+01      0.6178970231E-04

    ------------------------------------------------
       NWT REQUIRED            3 OUTER ITERATIONS 
       AND A TOTAL OF         14 INNER ITERATIONS.
    ------------------------------------------------
                                                   Max.-Head-Change                        Max.-Flux-Residual
  Residual-Control   Outer-Iter.   Inner-Iter.     Column Row Layer    Max.-Head-Change    Column Row Layer    Max.-Flux-Residual            L2-New               L2-Old           Solver-Max-Delh
          0                 1           6             1    1     1      -0.7718978561E-02       6   15    1      -0.4818077235E+01      0.1243742785E+02      0.1183211364E+00     -0.7718978561E-02
          0                 2           5             1    1     1       0.6682198358E-03       2    1    1       0.4760474553E+00      0.1239073463E+01      0.1243742785E+02      0.6682198358E-03
          0                 3           3             1    1     1       0.3466911723E-04       3    1    1       0.2897094109E-01      0.6221324277E-01      0.1239073463E+01      0.3466911723E-04

    ------------------------------------------------
       NWT REQUIRED            3 OUTER ITERATIONS 
       AND A TOTAL OF         14 INNER ITERATIONS.
    ------------------------------------------------
                                                   Max.-Head-Change                        Max.-Flux-Residual
  Residual-Control   Outer-Iter.   Inner-Iter.     Column Row Layer    Max.-Head-Change    Column Row Layer    Max.-Flux-Residual            L2-New               L2-Old           Solver-Max-Delh
          0                 1           6             1    1     1      -0.5075861126E-02       1    1    1      -0.3020750990E+01      0.7736275406E+01      0.6221324277E-01     -0.5075861126E-02
          0                 2           5             1    1     1       0.4392484801E-03       1    1    1       0.3049643539E+00      0.7721980263E+00      0.7736275406E+01      0.4392484801E-03
          0                 3           3             1    1     1       0.2499689301E-04       3    1    1       0.1891778654E-01      0.4452037171E-01      0.7721980263E+00      0.2499689301E-04

    ------------------------------------------------
       NWT REQUIRED            3 OUTER ITERATIONS 
       AND A TOTAL OF         14 INNER ITERATIONS.
    ------------------------------------------------
                                                   Max.-Head-Change                        Max.-Flux-Residual
  Residual-Control   Outer-Iter.   Inner-Iter.     Column Row Layer    Max.-Head-Change    Column Row Layer    Max.-Flux-Residual            L2-New               L2-Old           Solver-Max-Delh
          0                 1           6             1    1     1      -0.2555923831E-02       2    1    1      -0.1487121002E+01      0.4144449995E+01      0.4452037171E-01     -0.2555923831E-02
          0                 2           4             1    1     1       0.2154493413E-03       1   15    1       0.1497299030E+00      0.4104584583E+00      0.4144449995E+01      0.2154493413E-03
          0                 3           3             2    1     1       0.1234440427E-04       3    1    1       0.9846070665E-02      0.2833823753E-01      0.4104584583E+00      0.1234440427E-04

    ------------------------------------------------
       NWT REQUIRED            3 OUTER ITERATIONS 
       AND A TOTAL OF         13 INNER ITERATIONS.
    ------------------------------------------------
                                                   Max.-Head-Change                        Max.-Flux-Residual
  Residual-Control   Outer-Iter.   Inner-Iter.     Column Row Layer    Max.-Head-Change    Column Row Layer    Max.-Flux-Residual            L2-New               L2-Old           Solver-Max-Delh
          0                 1           5             1    1     1      -0.9996861014E-03       1   15    1      -0.6409948684E+00      0.1792744193E+01      0.2833823753E-01     -0.9996861014E-03
          0                 2           4             1    1     1       0.8649950050E-04       1   15    1       0.6317870412E-01      0.1766147243E+00      0.1792744193E+01      0.8649950050E-04

    ------------------------------------------------
       NWT REQUIRED            2 OUTER ITERATIONS 
       AND A TOTAL OF          9 INNER ITERATIONS.
    ------------------------------------------------
                                                   Max.-Head-Change                        Max.-Flux-Residual
  Residual-Control   Outer-Iter.   Inner-Iter.     Column Row Layer    Max.-Head-Change    Column Row Layer    Max.-Flux-Residual            L2-New               L2-Old           Solver-Max-Delh
          0                 1           5             6    5     2      -0.3584774509E-03       1   15    1      -0.2115734995E+00      0.7080785239E+00      0.1766147243E+00     -0.3584774509E-03
          0                 2           3             6    5     1       0.3138775173E-04       6    5    1       0.2191290457E-01      0.7401437757E-01      0.7080785239E+00      0.3138775173E-04

    ------------------------------------------------
       NWT REQUIRED            2 OUTER ITERATIONS 
       AND A TOTAL OF          8 INNER ITERATIONS.
    ------------------------------------------------
                                                   Max.-Head-Change                        Max.-Flux-Residual
  Residual-Control   Outer-Iter.   Inner-Iter.     Column Row Layer    Max.-Head-Change    Column Row Layer    Max.-Flux-Residual            L2-New               L2-Old           Solver-Max-Delh
          0                 1           4             6    5     1      -0.1676629379E-03       6    2    1      -0.1202065538E+00      0.3510240534E+00      0.7401437757E-01     -0.1676629379E-03
          0                 2           3             6    6     1       0.1735002685E-04       6    2    1       0.1663681131E-01      0.4008243647E-01      0.3510240534E+00      0.1735002685E-04

    ------------------------------------------------
       NWT REQUIRED            2 OUTER ITERATIONS 
       AND A TOTAL OF          7 INNER ITERATIONS.
    ------------------------------------------------

 OUTPUT CONTROL FOR STRESS PERIOD      5   TIME STEP     2
    SAVE BUDGET
 UBDSV1 SAVING "         STORAGE" ON UNIT7013 AT TIME STEP    2, STRESS PERIOD   5
 UBDSV2 SAVING "   CONSTANT HEAD" ON UNIT7013 AT TIME STEP    2, STRESS PERIOD   5
 UBDSV1 SAVING "FLOW RIGHT FACE " ON UNIT7013 AT TIME STEP    2, STRESS PERIOD   5
 UBDSV1 SAVING "FLOW FRONT FACE " ON UNIT7013 AT TIME STEP    2, STRESS PERIOD   5
 UBDSV1 SAVING "FLOW LOWER FACE " ON UNIT7013 AT TIME STEP    2, STRESS PERIOD   5
 UBDSV4 SAVING "  STREAM LEAKAGE" ON UNIT7013 AT TIME STEP    2, STRESS PERIOD   5



 
 
 
 
 
 
 
 
 UBDSV3 SAVING "FARM  NET  RECH." ON UNIT7013 AT TIME STEP    2, STRESS PERIOD   5
 UBDSV4 SAVING " GHOST-NODE HEAD" ON UNIT7013 AT TIME STEP    2, STRESS PERIOD   5
1
  VOLUMETRIC BUDGET FOR ENTIRE MODEL AT END OF TIME STEP    2 IN STRESS PERIOD      5
  ------------------------------------------------------------------------------

     CUMULATIVE VOLUMES      L**3       RATES FOR THIS TIME STEP      L**3/T
     ------------------                 ------------------------

           IN:                                      IN:
           ---                                      ---
             STORAGE =       62998.4023               STORAGE =           0.0000
       CONSTANT HEAD =           0.0000         CONSTANT HEAD =           0.0000
      STREAM LEAKAGE =      252705.5000        STREAM LEAKAGE =        1366.4985
          FARM WELLS =           0.0000            FARM WELLS =           0.0000
    FARM  NET  RECH. =       94420.1484      FARM  NET  RECH. =           0.0000
     GHOST-NODE HEAD =     3683249.5000       GHOST-NODE HEAD =        2478.7864

            TOTAL IN =     4093373.5000              TOTAL IN =        3845.2849

          OUT:                                     OUT:
          ----                                     ----
             STORAGE =     3935822.2500               STORAGE =        1027.3706
       CONSTANT HEAD =           0.0000         CONSTANT HEAD =           0.0000
      STREAM LEAKAGE =           0.0000        STREAM LEAKAGE =           0.0000
          FARM WELLS =           0.0000            FARM WELLS =           0.0000
    FARM  NET  RECH. =           0.0000      FARM  NET  RECH. =           0.0000
     GHOST-NODE HEAD =      157549.7969       GHOST-NODE HEAD =        2817.9011

           TOTAL OUT =     4093372.0000             TOTAL OUT =        3845.2717

            IN - OUT =           1.5000              IN - OUT =       1.3184E-02

 PERCENT DISCREPANCY =           0.00     PERCENT DISCREPANCY =           0.00






          TIME SUMMARY AT END OF TIME STEP     2 IN STRESS PERIOD      5
                    SECONDS     MINUTES      HOURS       DAYS        YEARS
                    -----------------------------------------------------------
   TIME STEP LENGTH 1.31414E+06  21902.      365.04      15.210     4.16427E-02
 STRESS PERIOD TIME 2.62829E+06  43805.      730.08      30.420     8.32854E-02
         TOTAL TIME 1.31414E+07 2.19024E+05  3650.4      152.10     0.41643    
1
1
  FLUX ACROSS PARENT-CHILD INTERFACE AT TIME STEP  2 IN STRESS PERIOD    5
  ------------------------------------------------------------------------
 G-N FLUX        PARENT        CHILD         DIFFERENCE      % DIFFERENCE
  RATE IN:      2.4792E+03    2.4788E+03     3.7939E-01        0.0153
 RATE OUT:      2.8174E+03    2.8179E+03    -4.9438E-01       -0.0175
1
                            STRESS PERIOD NO.      6, LENGTH =   30.42000    
                            -----------------------------------------------

                              NUMBER OF TIME STEPS =     2

                               MULTIPLIER FOR DELT =     1.000

                            INITIAL TIME STEP SIZE =   15.21000    

 REUSING STREAM SEGMENT DATA FROM LAST STRESS PERIOD

 Parameter:  WELLS1
 WELL NO. LAYER    ROW    COL  F-WELL ID    FARM ID         QMAX         QMAXRESET       LGRGRID         
 --------------------------------------------------------------------------------------------------------
       1      1      2      2          5          2      2.0000E+03              0              0
       2      1      5      5          6          2      1.0000E+03              0              0

 NUMBER OF ACTIVE FARM WELLS:        2

 FARM-ID  NUMBER OF WELLS PER FARM  TOTAL MAX.CAPACITY PER FARM
       1                         0                       0.0000
       2                         2                    3000.0000
       3                         0                       0.0000
       4                         0                       0.0000
       5                         0                       0.0000
       6                         0                       0.0000
       7                         0                       0.0000
       8                         0                       0.0000

Transpiratory and Evaporative Fractions of Crop Consumptive Use
    % Transpiration % Evap. for Precip. % Evap. for Irrig.
    3          0.000          1.000          1.000
    5          0.927          0.073          0.000

FRACTIONS OF IN-EFFICIENT LOSSES TO SW-RUNOFF FROM 
     PRECIPITATION:  IRRIGATION:
    3          0.600          0.500
    5          0.500          0.000
 
 SOLVING FOR HEAD 
                                                   Max.-Head-Change                        Max.-Flux-Residual
  Residual-Control   Outer-Iter.   Inner-Iter.     Column Row Layer    Max.-Head-Change    Column Row Layer    Max.-Flux-Residual            L2-New               L2-Old           Solver-Max-Delh
          0                 1           9             5   14     1       0.9390288058E+00       6   14    1       0.6845942329E+03      0.1141200996E+04      0.4008243647E-01      0.9390288058E+00
          0                 2           9             4   14     1      -0.1436914907E+00       4   14    1      -0.1834093072E+03      0.3657560088E+03      0.1141200996E+04     -0.1436914907E+00
          0                 3           6             5   14     1      -0.8135857017E-02       5   14    1      -0.1062947327E+02      0.2081315494E+02      0.3657560088E+03     -0.8135857017E-02
          0                 4           5             5   14     1      -0.4593369862E-03       6   14    1      -0.6097401897E+00      0.1168112051E+01      0.2081315494E+02     -0.4593369862E-03
          0                 5           2             5   14     1      -0.2517395562E-04       6   14    1      -0.3634097613E-01      0.6730947996E-01      0.1168112051E+01     -0.2517395562E-04

    ------------------------------------------------
       NWT REQUIRED            5 OUTER ITERATIONS 
       AND A TOTAL OF         31 INNER ITERATIONS.
    ------------------------------------------------
                                                   Max.-Head-Change                        Max.-Flux-Residual
  Residual-Control   Outer-Iter.   Inner-Iter.     Column Row Layer    Max.-Head-Change    Column Row Layer    Max.-Flux-Residual            L2-New               L2-Old           Solver-Max-Delh
          0                 1           8             5   14     1      -0.3745040010E+00       5   14    1      -0.4795320577E+03      0.7017658978E+03      0.6730947996E-01     -0.3745040010E+00
          0                 2           7             4   14     1      -0.1909652801E-01       4   14    1      -0.5249034217E+02      0.8387771627E+02      0.7017658978E+03     -0.1909652801E-01
          0                 3           5             4   14     1      -0.1577361117E-02       4   14    1      -0.2466825187E+01      0.4749380705E+01      0.8387771627E+02     -0.1577361117E-02
          0                 4           4             5   15     1      -0.2057658800E-03       5   13    1      -0.4671054729E+00      0.8498301203E+00      0.4749380705E+01     -0.2057658800E-03
          0                 5           2             5   14     1      -0.4146699724E-04       5   13    1      -0.9039914195E-01      0.1758776008E+00      0.8498301203E+00     -0.4146699724E-04

    ------------------------------------------------
       NWT REQUIRED            5 OUTER ITERATIONS 
       AND A TOTAL OF         26 INNER ITERATIONS.
    ------------------------------------------------
                                                   Max.-Head-Change                        Max.-Flux-Residual
  Residual-Control   Outer-Iter.   Inner-Iter.     Column Row Layer    Max.-Head-Change    Column Row Layer    Max.-Flux-Residual            L2-New               L2-Old           Solver-Max-Delh
          0                 1           7             6   14     1      -0.1030833654E+00       6   15    1      -0.9584018206E+02      0.1557600949E+03      0.1758776008E+00     -0.1030833654E+00
          0                 2           6             6   15     1       0.7200515224E-02       4   14    1      -0.1349563863E+02      0.2103033830E+02      0.1557600949E+03      0.7200515224E-02
          0                 3           4             6   15     1       0.2652160437E-03       5   14    1      -0.5211085239E+00      0.1240333702E+01      0.2103033830E+02      0.2652160437E-03
          0                 4           2             4   15     1      -0.3026199827E-04       4   15    1      -0.1287315045E+00      0.2290966049E+00      0.1240333702E+01     -0.3026199827E-04

    ------------------------------------------------
       NWT REQUIRED            4 OUTER ITERATIONS 
       AND A TOTAL OF         19 INNER ITERATIONS.
    ------------------------------------------------
                                                   Max.-Head-Change                        Max.-Flux-Residual
  Residual-Control   Outer-Iter.   Inner-Iter.     Column Row Layer    Max.-Head-Change    Column Row Layer    Max.-Flux-Residual            L2-New               L2-Old           Solver-Max-Delh
          0                 1           7             6   14     1      -0.5852623444E-01       6   15    1      -0.5570052381E+02      0.8868511091E+02      0.2290966049E+00     -0.5852623444E-01
          0                 2           6             6   15     1       0.4607691890E-02       6   15    1       0.5565553319E+01      0.1014030837E+02      0.8868511091E+02      0.4607691890E-02
          0                 3           4             6   15     1       0.2359879080E-03       6   15    1       0.2786730247E+00      0.4556613603E+00      0.1014030837E+02      0.2359879080E-03
          0                 4           2             6   15     1       0.1391038351E-04       6   15    1       0.1942932903E-01      0.2833783926E-01      0.4556613603E+00      0.1391038351E-04

    ------------------------------------------------
       NWT REQUIRED            4 OUTER ITERATIONS 
       AND A TOTAL OF         19 INNER ITERATIONS.
    ------------------------------------------------
                                                   Max.-Head-Change                        Max.-Flux-Residual
  Residual-Control   Outer-Iter.   Inner-Iter.     Column Row Layer    Max.-Head-Change    Column Row Layer    Max.-Flux-Residual            L2-New               L2-Old           Solver-Max-Delh
          0                 1           7             6   15     1      -0.2954290270E-01       6   15    1      -0.2801101147E+02      0.4319725777E+02      0.2833783926E-01     -0.2954290270E-01
          0                 2           5             6   15     1       0.2247919267E-02       4   14    1      -0.3254480209E+01      0.5420855886E+01      0.4319725777E+02      0.2247919267E-02
          0                 3           3             6   15     1       0.1168327902E-03       6   15    1       0.1411812116E+00      0.2619760689E+00      0.5420855886E+01      0.1168327902E-03
          0                 4           2             1    1     1      -0.6213945174E-05       6   13    1       0.9635034890E-02      0.1900293172E-01      0.2619760689E+00     -0.6213945174E-05

    ------------------------------------------------
       NWT REQUIRED            4 OUTER ITERATIONS 
       AND A TOTAL OF         17 INNER ITERATIONS.
    ------------------------------------------------
                                                   Max.-Head-Change                        Max.-Flux-Residual
  Residual-Control   Outer-Iter.   Inner-Iter.     Column Row Layer    Max.-Head-Change    Column Row Layer    Max.-Flux-Residual            L2-New               L2-Old           Solver-Max-Delh
          0                 1           6             6   15     1      -0.1314057453E-01       6   15    1      -0.1230465976E+02      0.1844037077E+02      0.1900293172E-01     -0.1314057453E-01
          0                 2           5             6   15     1       0.9075663278E-03       4   14    1      -0.2266626493E+01      0.2923241747E+01      0.1844037077E+02      0.9075663278E-03
          0                 3           3             4   14     1       0.7274723588E-04       4   14    1       0.1931346797E+00      0.2367572943E+00      0.2923241747E+01      0.7274723588E-04

    ------------------------------------------------
       NWT REQUIRED            3 OUTER ITERATIONS 
       AND A TOTAL OF         14 INNER ITERATIONS.
    ------------------------------------------------
                                                   Max.-Head-Change                        Max.-Flux-Residual
  Residual-Control   Outer-Iter.   Inner-Iter.     Column Row Layer    Max.-Head-Change    Column Row Layer    Max.-Flux-Residual            L2-New               L2-Old           Solver-Max-Delh
          0                 1           6             6   15     1      -0.4996944830E-02       6   15    1      -0.4619280091E+01      0.7193915259E+01      0.2367572943E+00     -0.4996944830E-02
          0                 2           4             4   14     1      -0.6248360056E-03       4   14    1      -0.1477186470E+01      0.1643818209E+01      0.7193915259E+01     -0.6248360056E-03
          0                 3           2             4   14     1       0.5751137647E-04       4   14    1       0.1596819450E+00      0.1766470344E+00      0.1643818209E+01      0.5751137647E-04

    ------------------------------------------------
       NWT REQUIRED            3 OUTER ITERATIONS 
       AND A TOTAL OF         12 INNER ITERATIONS.
    ------------------------------------------------
                                                   Max.-Head-Change                        Max.-Flux-Residual
  Residual-Control   Outer-Iter.   Inner-Iter.     Column Row Layer    Max.-Head-Change    Column Row Layer    Max.-Flux-Residual            L2-New               L2-Old           Solver-Max-Delh
          0                 1           5             4   15     1      -0.1700949608E-02       6   15    1      -0.1303095159E+01      0.2905505417E+01      0.1766470344E+00     -0.1700949608E-02
          0                 2           4             4   14     1      -0.4196254223E-03       4   14    1      -0.8429610030E+00      0.8903589221E+00      0.2905505417E+01     -0.4196254223E-03
          0                 3           2             4   14     1       0.3688294965E-04       4   14    1       0.8887791750E-01      0.9549380010E-01      0.8903589221E+00      0.3688294965E-04

    ------------------------------------------------
       NWT REQUIRED            3 OUTER ITERATIONS 
       AND A TOTAL OF         11 INNER ITERATIONS.
    ------------------------------------------------
                                                   Max.-Head-Change                        Max.-Flux-Residual
  Residual-Control   Outer-Iter.   Inner-Iter.     Column Row Layer    Max.-Head-Change    Column Row Layer    Max.-Flux-Residual            L2-New               L2-Old           Solver-Max-Delh
          0                 1           5             1   15     1      -0.5987770859E-03       1   15    1      -0.6285348139E+00      0.1386056758E+01      0.9549380010E-01     -0.5987770859E-03
          0                 2           3             4   14     1      -0.2277024420E-03       4   14    1      -0.4050415899E+00      0.4274531488E+00      0.1386056758E+01     -0.2277024420E-03
          0                 3           2             4   14     1       0.1885567191E-04       4   14    1       0.4037840629E-01      0.5703235234E-01      0.4274531488E+00      0.1885567191E-04

    ------------------------------------------------
       NWT REQUIRED            3 OUTER ITERATIONS 
       AND A TOTAL OF         10 INNER ITERATIONS.
    ------------------------------------------------
                                                   Max.-Head-Change                        Max.-Flux-Residual
  Residual-Control   Outer-Iter.   Inner-Iter.     Column Row Layer    Max.-Head-Change    Column Row Layer    Max.-Flux-Residual            L2-New               L2-Old           Solver-Max-Delh
          0                 1           4             6   13     1       0.3069093383E-03       6   14    1       0.2988099184E+00      0.7049701381E+00      0.5703235234E-01      0.3069093383E-03
          0                 2           3             4   14     1      -0.7978194261E-04       4   14    1      -0.1431343739E+00      0.1618383654E+00      0.7049701381E+00     -0.7978194261E-04

    ------------------------------------------------
       NWT REQUIRED            2 OUTER ITERATIONS 
       AND A TOTAL OF          7 INNER ITERATIONS.
    ------------------------------------------------
                                                   Max.-Head-Change                        Max.-Flux-Residual
  Residual-Control   Outer-Iter.   Inner-Iter.     Column Row Layer    Max.-Head-Change    Column Row Layer    Max.-Flux-Residual            L2-New               L2-Old           Solver-Max-Delh
          0                 1           4             6   14     1       0.2373111179E-03       6   15    1       0.2108271257E+00      0.3960514469E+00      0.1618383654E+00      0.2373111179E-03
          0                 2           2             6   14     1      -0.2428516548E-04       4   14    1      -0.2259872900E-01      0.4980028424E-01      0.3960514469E+00     -0.2428516548E-04

    ------------------------------------------------
       NWT REQUIRED            2 OUTER ITERATIONS 
       AND A TOTAL OF          6 INNER ITERATIONS.
    ------------------------------------------------

 OUTPUT CONTROL FOR STRESS PERIOD      6   TIME STEP     1
    SAVE BUDGET
 UBDSV1 SAVING "         STORAGE" ON UNIT7013 AT TIME STEP    1, STRESS PERIOD   6
 UBDSV2 SAVING "   CONSTANT HEAD" ON UNIT7013 AT TIME STEP    1, STRESS PERIOD   6
 UBDSV1 SAVING "FLOW RIGHT FACE " ON UNIT7013 AT TIME STEP    1, STRESS PERIOD   6
 UBDSV1 SAVING "FLOW FRONT FACE " ON UNIT7013 AT TIME STEP    1, STRESS PERIOD   6
 UBDSV1 SAVING "FLOW LOWER FACE " ON UNIT7013 AT TIME STEP    1, STRESS PERIOD   6
 UBDSV4 SAVING "  STREAM LEAKAGE" ON UNIT7013 AT TIME STEP    1, STRESS PERIOD   6



 
 
 
 
 
 
 
 
 UBDSV3 SAVING "FARM  NET  RECH." ON UNIT7013 AT TIME STEP    1, STRESS PERIOD   6
 UBDSV4 SAVING " GHOST-NODE HEAD" ON UNIT7013 AT TIME STEP    1, STRESS PERIOD   6
1
  FLUX ACROSS PARENT-CHILD INTERFACE AT TIME STEP  1 IN STRESS PERIOD    6
  ------------------------------------------------------------------------
 G-N FLUX        PARENT        CHILD         DIFFERENCE      % DIFFERENCE
  RATE IN:      2.1570E+03    2.1563E+03     7.5708E-01        0.0351
 RATE OUT:      3.0443E+03    3.0443E+03    -3.4180E-02       -0.0011
 
 SOLVING FOR HEAD 
                                                   Max.-Head-Change                        Max.-Flux-Residual
  Residual-Control   Outer-Iter.   Inner-Iter.     Column Row Layer    Max.-Head-Change    Column Row Layer    Max.-Flux-Residual            L2-New               L2-Old           Solver-Max-Delh
          0                 1           9             5   14     1       0.7903895602E+00       6   14    1       0.6575140418E+03      0.9889944918E+03      0.4980028424E-01      0.7903895602E+00
          0                 2           9             5   14     1      -0.1801793867E+00       5   14    1      -0.2505036184E+03      0.4466721799E+03      0.9889944918E+03     -0.1801793867E+00
          0                 3           6             5   14     1      -0.9948365204E-02       5   14    1      -0.1408022116E+02      0.2482318777E+02      0.4466721799E+03     -0.9948365204E-02
          0                 4           5             5   14     1      -0.5437874739E-03       6   14    1      -0.7801400761E+00      0.1355546751E+01      0.2482318777E+02     -0.5437874739E-03
          0                 5           3             5   14     1      -0.2997368066E-04       6   14    1      -0.4961610335E-01      0.7892679102E-01      0.1355546751E+01     -0.2997368066E-04

    ------------------------------------------------
       NWT REQUIRED            5 OUTER ITERATIONS 
       AND A TOTAL OF         32 INNER ITERATIONS.
    ------------------------------------------------
                                                   Max.-Head-Change                        Max.-Flux-Residual
  Residual-Control   Outer-Iter.   Inner-Iter.     Column Row Layer    Max.-Head-Change    Column Row Layer    Max.-Flux-Residual            L2-New               L2-Old           Solver-Max-Delh
          0                 1           8             5   14     1      -0.2862817394E+00       5   14    1      -0.4136144091E+03      0.5864310286E+03      0.7892679102E-01     -0.2862817394E+00
          0                 2           7             4   14     1      -0.3889995106E-01       4   14    1      -0.7810358062E+02      0.9143678291E+02      0.5864310286E+03     -0.3889995106E-01
          0                 3           6             5   14     1      -0.2740897334E-02       5   14    1      -0.3670631684E+01      0.6182454701E+01      0.9143678291E+02     -0.2740897334E-02
          0                 4           4             4   14     1      -0.2728626491E-03       6   14    1      -0.7555947345E+00      0.1176616994E+01      0.6182454701E+01     -0.2728626491E-03
          0                 5           2             6   14     1      -0.4557144970E-04       6   14    1      -0.1374101926E+00      0.1568868196E+00      0.1176616994E+01     -0.4557144970E-04

    ------------------------------------------------
       NWT REQUIRED            5 OUTER ITERATIONS 
       AND A TOTAL OF         27 INNER ITERATIONS.
    ------------------------------------------------
                                                   Max.-Head-Change                        Max.-Flux-Residual
  Residual-Control   Outer-Iter.   Inner-Iter.     Column Row Layer    Max.-Head-Change    Column Row Layer    Max.-Flux-Residual            L2-New               L2-Old           Solver-Max-Delh
          0                 1           7             6   15     1      -0.8986315415E-01       6   15    1      -0.9052576314E+02      0.1524140443E+03      0.1568868196E+00     -0.8986315415E-01
          0                 2           6             6   15     1       0.6863393904E-02       4   14    1      -0.1463589891E+02      0.2064551539E+02      0.1524140443E+03      0.6863393904E-02
          0                 3           4             6   15     1       0.2647895661E-03       5   14    1      -0.4798237453E+00      0.1091965426E+01      0.2064551539E+02      0.2647895661E-03
          0                 4           3             4   14     1      -0.3603776347E-04       4   15    1      -0.7136206003E-01      0.1609855431E+00      0.1091965426E+01     -0.3603776347E-04

    ------------------------------------------------
       NWT REQUIRED            4 OUTER ITERATIONS 
       AND A TOTAL OF         20 INNER ITERATIONS.
    ------------------------------------------------
                                                   Max.-Head-Change                        Max.-Flux-Residual
  Residual-Control   Outer-Iter.   Inner-Iter.     Column Row Layer    Max.-Head-Change    Column Row Layer    Max.-Flux-Residual            L2-New               L2-Old           Solver-Max-Delh
          0                 1           7             6   15     1      -0.5038956173E-01       6   15    1      -0.5038639689E+02      0.8457527144E+02      0.1609855431E+00     -0.5038956173E-01
          0                 2           5             6   15     1       0.3899736728E-02       4   14    1      -0.7167950159E+01      0.1090169167E+02      0.8457527144E+02      0.3899736728E-02
          0                 3           4             6   15     1       0.1593053835E-03       6   15    1       0.2515600193E+00      0.5413275440E+00      0.1090169167E+02      0.1593053835E-03
          0                 4           2             4   14     1      -0.2397704899E-04       4   13    1      -0.5728550791E-01      0.8865681274E-01      0.5413275440E+00     -0.2397704899E-04

    ------------------------------------------------
       NWT REQUIRED            4 OUTER ITERATIONS 
       AND A TOTAL OF         18 INNER ITERATIONS.
    ------------------------------------------------
                                                   Max.-Head-Change                        Max.-Flux-Residual
  Residual-Control   Outer-Iter.   Inner-Iter.     Column Row Layer    Max.-Head-Change    Column Row Layer    Max.-Flux-Residual            L2-New               L2-Old           Solver-Max-Delh
          0                 1           7             6   15     1      -0.2459721203E-01       6   15    1      -0.2374525336E+02      0.3797355601E+02      0.8865681274E-01     -0.2459721203E-01
          0                 2           5             6   15     1       0.1745005561E-02       4   14    1      -0.4331331248E+01      0.5767631006E+01      0.3797355601E+02      0.1745005561E-02
          0                 3           3             4   13     1      -0.7024564295E-04       5   14    1      -0.1575598414E+00      0.3301619328E+00      0.5767631006E+01     -0.7024564295E-04

    ------------------------------------------------
       NWT REQUIRED            3 OUTER ITERATIONS 
       AND A TOTAL OF         15 INNER ITERATIONS.
    ------------------------------------------------
                                                   Max.-Head-Change                        Max.-Flux-Residual
  Residual-Control   Outer-Iter.   Inner-Iter.     Column Row Layer    Max.-Head-Change    Column Row Layer    Max.-Flux-Residual            L2-New               L2-Old           Solver-Max-Delh
          0                 1           6             6   15     1      -0.1039653862E-01       6   15    1      -0.9551211673E+01      0.1514910805E+02      0.3301619328E+00     -0.1039653862E-01
          0                 2           5             4   14     1      -0.1167826995E-02       4   14    1      -0.2774482417E+01      0.3130012947E+01      0.1514910805E+02     -0.1167826995E-02
          0                 3           3             5   14     1      -0.6380439012E-04       5   14    1      -0.8897927962E-01      0.1669919370E+00      0.3130012947E+01     -0.6380439012E-04

    ------------------------------------------------
       NWT REQUIRED            3 OUTER ITERATIONS 
       AND A TOTAL OF         14 INNER ITERATIONS.
    ------------------------------------------------
                                                   Max.-Head-Change                        Max.-Flux-Residual
  Residual-Control   Outer-Iter.   Inner-Iter.     Column Row Layer    Max.-Head-Change    Column Row Layer    Max.-Flux-Residual            L2-New               L2-Old           Solver-Max-Delh
          0                 1           6             4   14     1      -0.4177411975E-02       4   14    1      -0.4060793058E+01      0.6270267162E+01      0.1669919370E+00     -0.4177411975E-02
          0                 2           4             4   14     1      -0.8291373033E-03       4   14    1      -0.1698107626E+01      0.1764433908E+01      0.6270267162E+01     -0.8291373033E-03
          0                 3           2             5   15     1      -0.2950035320E-04       5   15    1      -0.3647874098E-01      0.5839344131E-01      0.1764433908E+01     -0.2950035320E-04

    ------------------------------------------------
       NWT REQUIRED            3 OUTER ITERATIONS 
       AND A TOTAL OF         12 INNER ITERATIONS.
    ------------------------------------------------
                                                   Max.-Head-Change                        Max.-Flux-Residual
  Residual-Control   Outer-Iter.   Inner-Iter.     Column Row Layer    Max.-Head-Change    Column Row Layer    Max.-Flux-Residual            L2-New               L2-Old           Solver-Max-Delh
          0                 1           5             4   14     1      -0.1816904974E-02       4   14    1      -0.2105261680E+01      0.2973372055E+01      0.5839344131E-01     -0.1816904974E-02
          0                 2           4             4   14     1      -0.4886987813E-03       4   14    1      -0.9173673266E+00      0.9404102763E+00      0.2973372055E+01     -0.4886987813E-03
          0                 3           2             4   15     1      -0.9209576019E-05       6   11    1      -0.1836004137E-01      0.3366670921E-01      0.9404102763E+00     -0.9209576019E-05

    ------------------------------------------------
       NWT REQUIRED            3 OUTER ITERATIONS 
       AND A TOTAL OF         11 INNER ITERATIONS.
    ------------------------------------------------
                                                   Max.-Head-Change                        Max.-Flux-Residual
  Residual-Control   Outer-Iter.   Inner-Iter.     Column Row Layer    Max.-Head-Change    Column Row Layer    Max.-Flux-Residual            L2-New               L2-Old           Solver-Max-Delh
          0                 1           5             1   12     2      -0.6261338860E-03       4   14    1      -0.6939015602E+00      0.1427169014E+01      0.3366670921E-01     -0.6261338860E-03
          0                 2           3             4   14     1      -0.2361289598E-03       4   14    1      -0.4227926023E+00      0.4408245186E+00      0.1427169014E+01     -0.2361289598E-03
          0                 3           2             6   14     1      -0.8686844302E-05       6   14    1      -0.1708462706E-01      0.3620702855E-01      0.4408245186E+00     -0.8686844302E-05

    ------------------------------------------------
       NWT REQUIRED            3 OUTER ITERATIONS 
       AND A TOTAL OF         10 INNER ITERATIONS.
    ------------------------------------------------
                                                   Max.-Head-Change                        Max.-Flux-Residual
  Residual-Control   Outer-Iter.   Inner-Iter.     Column Row Layer    Max.-Head-Change    Column Row Layer    Max.-Flux-Residual            L2-New               L2-Old           Solver-Max-Delh
          0                 1           4             6   13     1       0.2431402678E-03       6   14    1       0.2598883122E+00      0.6376199167E+00      0.3620702855E-01      0.2431402678E-03
          0                 2           3             4   14     1      -0.8295765603E-04       4   14    1      -0.1382319264E+00      0.1529460315E+00      0.6376199167E+00     -0.8295765603E-04

    ------------------------------------------------
       NWT REQUIRED            2 OUTER ITERATIONS 
       AND A TOTAL OF          7 INNER ITERATIONS.
    ------------------------------------------------
                                                   Max.-Head-Change                        Max.-Flux-Residual
  Residual-Control   Outer-Iter.   Inner-Iter.     Column Row Layer    Max.-Head-Change    Column Row Layer    Max.-Flux-Residual            L2-New               L2-Old           Solver-Max-Delh
          0                 1           4             6   14     1       0.1654879413E-03       6   13    1       0.1446540335E+00      0.3207225206E+00      0.1529460315E+00      0.1654879413E-03
          0                 2           2             6   14     1      -0.1482626955E-04       4   14    1      -0.2112288668E-01      0.4059091889E-01      0.3207225206E+00     -0.1482626955E-04

    ------------------------------------------------
       NWT REQUIRED            2 OUTER ITERATIONS 
       AND A TOTAL OF          6 INNER ITERATIONS.
    ------------------------------------------------

 OUTPUT CONTROL FOR STRESS PERIOD      6   TIME STEP     2
    PRINT BUDGET
    SAVE HEAD FOR ALL LAYERS
    SAVE BUDGET
 UBDSV1 SAVING "         STORAGE" ON UNIT7013 AT TIME STEP    2, STRESS PERIOD   6
 UBDSV2 SAVING "   CONSTANT HEAD" ON UNIT7013 AT TIME STEP    2, STRESS PERIOD   6
 UBDSV1 SAVING "FLOW RIGHT FACE " ON UNIT7013 AT TIME STEP    2, STRESS PERIOD   6
 UBDSV1 SAVING "FLOW FRONT FACE " ON UNIT7013 AT TIME STEP    2, STRESS PERIOD   6
 UBDSV1 SAVING "FLOW LOWER FACE " ON UNIT7013 AT TIME STEP    2, STRESS PERIOD   6
 UBDSV4 SAVING "  STREAM LEAKAGE" ON UNIT7013 AT TIME STEP    2, STRESS PERIOD   6



 
 
 
 
 
 
 
 
 UBDSV3 SAVING "FARM  NET  RECH." ON UNIT7013 AT TIME STEP    2, STRESS PERIOD   6
 UBDSV4 SAVING " GHOST-NODE HEAD" ON UNIT7013 AT TIME STEP    2, STRESS PERIOD   6

 HEAD WILL BE SAVED ON UNIT 2213 AT END OF TIME STEP     2, STRESS PERIOD      6
1
  VOLUMETRIC BUDGET FOR ENTIRE MODEL AT END OF TIME STEP    2 IN STRESS PERIOD      6
  ------------------------------------------------------------------------------

     CUMULATIVE VOLUMES      L**3       RATES FOR THIS TIME STEP      L**3/T
     ------------------                 ------------------------

           IN:                                      IN:
           ---                                      ---
             STORAGE =       62998.4023               STORAGE =           0.0000
       CONSTANT HEAD =           0.0000         CONSTANT HEAD =           0.0000
      STREAM LEAKAGE =      305515.8750        STREAM LEAKAGE =        1769.1523
          FARM WELLS =           0.0000            FARM WELLS =           0.0000
    FARM  NET  RECH. =       94420.1484      FARM  NET  RECH. =           0.0000
     GHOST-NODE HEAD =     3746195.5000       GHOST-NODE HEAD =        1982.1676

            TOTAL IN =     4209130.0000              TOTAL IN =        3751.3198

          OUT:                                     OUT:
          ----                                     ----
             STORAGE =     3957123.2500               STORAGE =         585.5465
       CONSTANT HEAD =           0.0000         CONSTANT HEAD =           0.0000
      STREAM LEAKAGE =           0.0000        STREAM LEAKAGE =           0.0000
          FARM WELLS =           0.0000            FARM WELLS =           0.0000
    FARM  NET  RECH. =           0.0000      FARM  NET  RECH. =           0.0000
     GHOST-NODE HEAD =      252005.4688       GHOST-NODE HEAD =        3165.7878

           TOTAL OUT =     4209128.5000             TOTAL OUT =        3751.3345

            IN - OUT =           1.5000              IN - OUT =      -1.4648E-02

 PERCENT DISCREPANCY =           0.00     PERCENT DISCREPANCY =          -0.00






          TIME SUMMARY AT END OF TIME STEP     2 IN STRESS PERIOD      6
                    SECONDS     MINUTES      HOURS       DAYS        YEARS
                    -----------------------------------------------------------
   TIME STEP LENGTH 1.31414E+06  21902.      365.04      15.210     4.16427E-02
 STRESS PERIOD TIME 2.62829E+06  43805.      730.08      30.420     8.32854E-02
         TOTAL TIME 1.57697E+07 2.62829E+05  4380.5      182.52     0.49971    
1
1
  FLUX ACROSS PARENT-CHILD INTERFACE AT TIME STEP  2 IN STRESS PERIOD    6
  ------------------------------------------------------------------------
 G-N FLUX        PARENT        CHILD         DIFFERENCE      % DIFFERENCE
  RATE IN:      1.9825E+03    1.9822E+03     3.7292E-01        0.0188
 RATE OUT:      3.1661E+03    3.1658E+03     3.2251E-01        0.0102
1
                            STRESS PERIOD NO.      7, LENGTH =   30.42000    
                            -----------------------------------------------

                              NUMBER OF TIME STEPS =     2

                               MULTIPLIER FOR DELT =     1.000

                            INITIAL TIME STEP SIZE =   15.21000    

 REUSING STREAM SEGMENT DATA FROM LAST STRESS PERIOD

 Parameter:  WELLS1
 WELL NO. LAYER    ROW    COL  F-WELL ID    FARM ID         QMAX         QMAXRESET       LGRGRID         
 --------------------------------------------------------------------------------------------------------
       1      1      2      2          5          2      2.0000E+03              0              0
       2      1      5      5          6          2      1.0000E+03              0              0

 NUMBER OF ACTIVE FARM WELLS:        2

 FARM-ID  NUMBER OF WELLS PER FARM  TOTAL MAX.CAPACITY PER FARM
       1                         0                       0.0000
       2                         2                    3000.0000
       3                         0                       0.0000
       4                         0                       0.0000
       5                         0                       0.0000
       6                         0                       0.0000
       7                         0                       0.0000
       8                         0                       0.0000

Transpiratory and Evaporative Fractions of Crop Consumptive Use
    % Transpiration % Evap. for Precip. % Evap. for Irrig.
    3          0.000          1.000          1.000
    5          0.927          0.073          0.000

FRACTIONS OF IN-EFFICIENT LOSSES TO SW-RUNOFF FROM 
     PRECIPITATION:  IRRIGATION:
    3          0.600          0.500
    5          0.500          0.000
 
 SOLVING FOR HEAD 
                                                   Max.-Head-Change                        Max.-Flux-Residual
  Residual-Control   Outer-Iter.   Inner-Iter.     Column Row Layer    Max.-Head-Change    Column Row Layer    Max.-Flux-Residual            L2-New               L2-Old           Solver-Max-Delh
          0                 1           9             6   14     1       0.1657463933E+00       6   15    1       0.1520497931E+03      0.3097462029E+03      0.4059091889E-01      0.1657463933E+00
          0                 2           7             4   14     1       0.2570708100E-01       4   14    1       0.6172176048E+02      0.6833953732E+02      0.3097462029E+03      0.2570708100E-01
          0                 3           5             5   14     1       0.9224144303E-03       4   14    1      -0.1952711094E+01      0.3351933551E+01      0.6833953732E+02      0.9224144303E-03
          0                 4           3             4   14     1       0.1498320272E-03       4   14    1       0.5078811070E+00      0.1080835492E+01      0.3351933551E+01      0.1498320272E-03
          0                 5           3             4   14     1       0.3896451414E-04       4   14    1       0.1411883914E+00      0.2439647531E+00      0.1080835492E+01      0.3896451414E-04

    ------------------------------------------------
       NWT REQUIRED            5 OUTER ITERATIONS 
       AND A TOTAL OF         27 INNER ITERATIONS.
    ------------------------------------------------
                                                   Max.-Head-Change                        Max.-Flux-Residual
  Residual-Control   Outer-Iter.   Inner-Iter.     Column Row Layer    Max.-Head-Change    Column Row Layer    Max.-Flux-Residual            L2-New               L2-Old           Solver-Max-Delh
          0                 1           9             2   14     1      -0.6951348043E+00       1   14    1      -0.5586172732E+03      0.9307515546E+03      0.2439647531E+00     -0.6951348043E+00
          0                 2           8             2   14     1       0.5803835248E-01       1   14    1       0.5294568267E+02      0.8810733337E+02      0.9307515546E+03      0.5803835248E-01
          0                 3           6             2   14     1       0.2925393291E-02       1   14    1       0.2686511511E+01      0.4424438031E+01      0.8810733337E+02      0.2925393291E-02
          0                 4           4             2   14     1       0.1497892824E-03       1   14    1       0.1414159560E+00      0.2287135735E+00      0.4424438031E+01      0.1497892824E-03
          0                 5           2             1   14     1       0.7831822836E-05       1   14    1       0.1043623104E-01      0.1770517788E-01      0.2287135735E+00      0.7831822836E-05

    ------------------------------------------------
       NWT REQUIRED            5 OUTER ITERATIONS 
       AND A TOTAL OF         29 INNER ITERATIONS.
    ------------------------------------------------
                                                   Max.-Head-Change                        Max.-Flux-Residual
  Residual-Control   Outer-Iter.   Inner-Iter.     Column Row Layer    Max.-Head-Change    Column Row Layer    Max.-Flux-Residual            L2-New               L2-Old           Solver-Max-Delh
          0                 1           8             1   15     1      -0.8615530218E-01       1   15    1      -0.7888450436E+02      0.1483796751E+03      0.1770517788E-01     -0.8615530218E-01
          0                 2           6             1   15     1       0.7348251121E-02       1   15    1       0.7789231532E+01      0.1471239654E+02      0.1483796751E+03      0.7348251121E-02
          0                 3           5             1   15     1       0.3758502455E-03       1   15    1       0.3965545160E+00      0.7473984836E+00      0.1471239654E+02      0.3758502455E-03
          0                 4           3             1   15     1       0.2190406411E-04       1   15    1       0.2345141902E-01      0.4070731285E-01      0.7473984836E+00      0.2190406411E-04

    ------------------------------------------------
       NWT REQUIRED            4 OUTER ITERATIONS 
       AND A TOTAL OF         22 INNER ITERATIONS.
    ------------------------------------------------
                                                   Max.-Head-Change                        Max.-Flux-Residual
  Residual-Control   Outer-Iter.   Inner-Iter.     Column Row Layer    Max.-Head-Change    Column Row Layer    Max.-Flux-Residual            L2-New               L2-Old           Solver-Max-Delh
          0                 1           7             6   15     1      -0.5039326393E-01       6   15    1      -0.4438430850E+02      0.9811466641E+02      0.4070731285E-01     -0.5039326393E-01
          0                 2           6             6   15     1       0.4351550014E-02       6   15    1       0.4441150921E+01      0.9766262938E+01      0.9811466641E+02      0.4351550014E-02
          0                 3           4             6   15     1       0.2200917337E-03       6   15    1       0.2238775052E+00      0.4934718346E+00      0.9766262938E+01      0.2200917337E-03
          0                 4           2             6   15     1       0.1040273498E-04       1   15    1       0.1182697318E-01      0.2849266798E-01      0.4934718346E+00      0.1040273498E-04

    ------------------------------------------------
       NWT REQUIRED            4 OUTER ITERATIONS 
       AND A TOTAL OF         19 INNER ITERATIONS.
    ------------------------------------------------
                                                   Max.-Head-Change                        Max.-Flux-Residual
  Residual-Control   Outer-Iter.   Inner-Iter.     Column Row Layer    Max.-Head-Change    Column Row Layer    Max.-Flux-Residual            L2-New               L2-Old           Solver-Max-Delh
          0                 1           7             6   15     1      -0.2876635576E-01       6   15    1      -0.2547083053E+02      0.5842702717E+02      0.2849266798E-01     -0.2876635576E-01
          0                 2           6             6   15     1       0.2483126356E-02       6   15    1       0.2544365198E+01      0.5824310441E+01      0.5842702717E+02      0.2483126356E-02
          0                 3           4             6   15     1       0.1225174557E-03       6   15    1       0.1261022515E+00      0.2889690669E+00      0.5824310441E+01      0.1225174557E-03
          0                 4           2             5   15     1       0.9488018641E-05       6   15    1       0.1162630392E-01      0.2437066057E-01      0.2889690669E+00      0.9488018641E-05

    ------------------------------------------------
       NWT REQUIRED            4 OUTER ITERATIONS 
       AND A TOTAL OF         19 INNER ITERATIONS.
    ------------------------------------------------
                                                   Max.-Head-Change                        Max.-Flux-Residual
  Residual-Control   Outer-Iter.   Inner-Iter.     Column Row Layer    Max.-Head-Change    Column Row Layer    Max.-Flux-Residual            L2-New               L2-Old           Solver-Max-Delh
          0                 1           7             6   15     1      -0.1446020449E-01       1   15    1      -0.1285245219E+02      0.2887715277E+02      0.2437066057E-01     -0.1446020449E-01
          0                 2           5             6   15     1       0.1244425003E-02       1   15    1       0.1272420679E+01      0.2874125203E+01      0.2887715277E+02      0.1244425003E-02
          0                 3           3             5   15     1       0.6477968571E-04       1   15    1       0.6327526696E-01      0.1461933753E+00      0.2874125203E+01      0.6477968571E-04

    ------------------------------------------------
       NWT REQUIRED            3 OUTER ITERATIONS 
       AND A TOTAL OF         15 INNER ITERATIONS.
    ------------------------------------------------
                                                   Max.-Head-Change                        Max.-Flux-Residual
  Residual-Control   Outer-Iter.   Inner-Iter.     Column Row Layer    Max.-Head-Change    Column Row Layer    Max.-Flux-Residual            L2-New               L2-Old           Solver-Max-Delh
          0                 1           6             1   15     1      -0.7725370730E-02       1   15    1      -0.7123357012E+01      0.1307876675E+02      0.1461933753E+00     -0.7725370730E-02
          0                 2           5             1   15     1       0.6621695632E-03       1   15    1       0.7083892000E+00      0.1298658182E+01      0.1307876675E+02      0.6621695632E-03
          0                 3           3             1   15     1       0.3304229238E-04       1   15    1       0.3431314119E-01      0.6742568486E-01      0.1298658182E+01      0.3304229238E-04

    ------------------------------------------------
       NWT REQUIRED            3 OUTER ITERATIONS 
       AND A TOTAL OF         14 INNER ITERATIONS.
    ------------------------------------------------
                                                   Max.-Head-Change                        Max.-Flux-Residual
  Residual-Control   Outer-Iter.   Inner-Iter.     Column Row Layer    Max.-Head-Change    Column Row Layer    Max.-Flux-Residual            L2-New               L2-Old           Solver-Max-Delh
          0                 1           6             1   15     1      -0.4016724796E-02       1   15    1      -0.3607971422E+01      0.6316686177E+01      0.6742568486E-01     -0.4016724796E-02
          0                 2           5             1   15     1       0.3399552858E-03       1   15    1       0.3564484371E+00      0.6208026248E+00      0.6316686177E+01      0.3399552858E-03
          0                 3           3             1   15     1       0.2288787902E-04       1   15    1       0.2507493534E-01      0.4159049440E-01      0.6208026248E+00      0.2288787902E-04

    ------------------------------------------------
       NWT REQUIRED            3 OUTER ITERATIONS 
       AND A TOTAL OF         14 INNER ITERATIONS.
    ------------------------------------------------
                                                   Max.-Head-Change                        Max.-Flux-Residual
  Residual-Control   Outer-Iter.   Inner-Iter.     Column Row Layer    Max.-Head-Change    Column Row Layer    Max.-Flux-Residual            L2-New               L2-Old           Solver-Max-Delh
          0                 1           6             1   14     1      -0.1793800522E-02       1   15    1      -0.1550821534E+01      0.2991898074E+01      0.4159049440E-01     -0.1793800522E-02
          0                 2           4             1   12     2       0.1538262956E-03       1   15    1       0.1485491259E+00      0.2938983918E+00      0.2991898074E+01      0.1538262956E-03
          0                 3           2             1   15     1       0.9321245399E-05       1   15    1       0.1235846389E-01      0.2523210426E-01      0.2938983918E+00      0.9321245399E-05

    ------------------------------------------------
       NWT REQUIRED            3 OUTER ITERATIONS 
       AND A TOTAL OF         12 INNER ITERATIONS.
    ------------------------------------------------
                                                   Max.-Head-Change                        Max.-Flux-Residual
  Residual-Control   Outer-Iter.   Inner-Iter.     Column Row Layer    Max.-Head-Change    Column Row Layer    Max.-Flux-Residual            L2-New               L2-Old           Solver-Max-Delh
          0                 1           5             1   12     1      -0.6905272862E-03       1   12    1      -0.4603670408E+00      0.1084266664E+01      0.2523210426E-01     -0.6905272862E-03
          0                 2           4             1   12     1       0.5998474039E-04       1   15    1       0.5138577614E-01      0.1109615819E+00      0.1084266664E+01      0.5998474039E-04

    ------------------------------------------------
       NWT REQUIRED            2 OUTER ITERATIONS 
       AND A TOTAL OF          9 INNER ITERATIONS.
    ------------------------------------------------
                                                   Max.-Head-Change                        Max.-Flux-Residual
  Residual-Control   Outer-Iter.   Inner-Iter.     Column Row Layer    Max.-Head-Change    Column Row Layer    Max.-Flux-Residual            L2-New               L2-Old           Solver-Max-Delh
          0                 1           4             1   11     3       0.1238024758E-03       1   12    1      -0.7106952975E-01      0.2194314155E+00      0.1109615819E+00      0.1238024758E-03
          0                 2           2             1   11     3      -0.1140977115E-04       1   11    1       0.9456726490E-02      0.2585309955E-01      0.2194314155E+00     -0.1140977115E-04

    ------------------------------------------------
       NWT REQUIRED            2 OUTER ITERATIONS 
       AND A TOTAL OF          6 INNER ITERATIONS.
    ------------------------------------------------

 OUTPUT CONTROL FOR STRESS PERIOD      7   TIME STEP     1
    SAVE BUDGET
 UBDSV1 SAVING "         STORAGE" ON UNIT7013 AT TIME STEP    1, STRESS PERIOD   7
 UBDSV2 SAVING "   CONSTANT HEAD" ON UNIT7013 AT TIME STEP    1, STRESS PERIOD   7
 UBDSV1 SAVING "FLOW RIGHT FACE " ON UNIT7013 AT TIME STEP    1, STRESS PERIOD   7
 UBDSV1 SAVING "FLOW FRONT FACE " ON UNIT7013 AT TIME STEP    1, STRESS PERIOD   7
 UBDSV1 SAVING "FLOW LOWER FACE " ON UNIT7013 AT TIME STEP    1, STRESS PERIOD   7
 UBDSV4 SAVING "  STREAM LEAKAGE" ON UNIT7013 AT TIME STEP    1, STRESS PERIOD   7



 
 
 
 
 
 
 
 
 UBDSV3 SAVING "FARM  NET  RECH." ON UNIT7013 AT TIME STEP    1, STRESS PERIOD   7
 UBDSV4 SAVING " GHOST-NODE HEAD" ON UNIT7013 AT TIME STEP    1, STRESS PERIOD   7
1
  FLUX ACROSS PARENT-CHILD INTERFACE AT TIME STEP  1 IN STRESS PERIOD    7
  ------------------------------------------------------------------------
 G-N FLUX        PARENT        CHILD         DIFFERENCE      % DIFFERENCE
  RATE IN:      2.4451E+03    2.4443E+03     8.5645E-01        0.0350
 RATE OUT:      2.7147E+03    2.7147E+03    -2.6855E-03       -0.0001
 
 SOLVING FOR HEAD 
                                                   Max.-Head-Change                        Max.-Flux-Residual
  Residual-Control   Outer-Iter.   Inner-Iter.     Column Row Layer    Max.-Head-Change    Column Row Layer    Max.-Flux-Residual            L2-New               L2-Old           Solver-Max-Delh
          0                 1           9             2   14     1       0.6231110809E+00       1   14    1       0.5398025471E+03      0.9048417237E+03      0.2585309955E-01      0.6231110809E+00
          0                 2           8             1   14     1      -0.4354502245E-01       2   14    1      -0.6443027909E+02      0.1027418005E+03      0.9048417237E+03     -0.4354502245E-01
          0                 3           7             3   14     1      -0.1730154963E-01       3   14    1      -0.1913719159E+02      0.2657281651E+02      0.1027418005E+03     -0.1730154963E-01
          0                 4           5             3   14     1      -0.8668029578E-03       3   14    1      -0.9602882484E+00      0.1332973990E+01      0.2657281651E+02     -0.8668029578E-03
          0                 5           3             3   14     1      -0.4399974236E-04       3   14    1      -0.4795620724E-01      0.6835443942E-01      0.1332973990E+01     -0.4399974236E-04

    ------------------------------------------------
       NWT REQUIRED            5 OUTER ITERATIONS 
       AND A TOTAL OF         32 INNER ITERATIONS.
    ------------------------------------------------
                                                   Max.-Head-Change                        Max.-Flux-Residual
  Residual-Control   Outer-Iter.   Inner-Iter.     Column Row Layer    Max.-Head-Change    Column Row Layer    Max.-Flux-Residual            L2-New               L2-Old           Solver-Max-Delh
          0                 1           9             2   14     1      -0.7239743534E+00       1   14    1      -0.5962259523E+03      0.9693059266E+03      0.6835443942E-01     -0.7239743534E+00
          0                 2           8             2   14     1       0.6023756470E-01       1   14    1       0.5633675734E+02      0.9112868933E+02      0.9693059266E+03      0.6023756470E-01
          0                 3           6             2   14     1       0.3031710236E-02       1   14    1       0.2854772671E+01      0.4567475791E+01      0.9112868933E+02      0.3031710236E-02
          0                 4           4             2   14     1       0.1521752410E-03       1   14    1       0.1462484826E+00      0.2321602725E+00      0.4567475791E+01      0.1521752410E-03
          0                 5           2             2   14     1       0.7671070675E-05       1   14    1       0.1067950437E-01      0.1887942710E-01      0.2321602725E+00      0.7671070675E-05

    ------------------------------------------------
       NWT REQUIRED            5 OUTER ITERATIONS 
       AND A TOTAL OF         29 INNER ITERATIONS.
    ------------------------------------------------
                                                   Max.-Head-Change                        Max.-Flux-Residual
  Residual-Control   Outer-Iter.   Inner-Iter.     Column Row Layer    Max.-Head-Change    Column Row Layer    Max.-Flux-Residual            L2-New               L2-Old           Solver-Max-Delh
          0                 1           8             6   15     1      -0.6169811782E-01       6   15    1      -0.5324632545E+02      0.1117448185E+03      0.1887942710E-01     -0.6169811782E-01
          0                 2           6             6   15     1       0.5320691196E-02       6   15    1       0.5316573249E+01      0.1110250134E+02      0.1117448185E+03      0.5320691196E-02
          0                 3           5             6   15     1       0.2633866025E-03       6   15    1       0.2620753388E+00      0.5576346978E+00      0.1110250134E+02      0.2633866025E-03
          0                 4           3             6   15     1       0.1824198760E-04       6   15    1       0.1951725694E-01      0.3703023102E-01      0.5576346978E+00      0.1824198760E-04

    ------------------------------------------------
       NWT REQUIRED            4 OUTER ITERATIONS 
       AND A TOTAL OF         22 INNER ITERATIONS.
    ------------------------------------------------
                                                   Max.-Head-Change                        Max.-Flux-Residual
  Residual-Control   Outer-Iter.   Inner-Iter.     Column Row Layer    Max.-Head-Change    Column Row Layer    Max.-Flux-Residual            L2-New               L2-Old           Solver-Max-Delh
          0                 1           7             6   15     1      -0.3720552163E-01       6   15    1      -0.3311047621E+02      0.6730181099E+02      0.3703023102E-01     -0.3720552163E-01
          0                 2           6             6   15     1       0.3214638119E-02       6   15    1       0.3314913919E+01      0.6717458684E+01      0.6730181099E+02      0.3214638119E-02
          0                 3           4             6   15     1       0.1556014401E-03       6   15    1       0.1618828467E+00      0.3264606796E+00      0.6717458684E+01      0.1556014401E-03
          0                 4           2             1   15     1       0.1120000321E-04       1   15    1       0.1446299226E-01      0.2790272801E-01      0.3264606796E+00      0.1120000321E-04

    ------------------------------------------------
       NWT REQUIRED            4 OUTER ITERATIONS 
       AND A TOTAL OF         19 INNER ITERATIONS.
    ------------------------------------------------
                                                   Max.-Head-Change                        Max.-Flux-Residual
  Residual-Control   Outer-Iter.   Inner-Iter.     Column Row Layer    Max.-Head-Change    Column Row Layer    Max.-Flux-Residual            L2-New               L2-Old           Solver-Max-Delh
          0                 1           7             6   15     1      -0.1964327079E-01       6   15    1      -0.1768318460E+02      0.4032530970E+02      0.2790272801E-01     -0.1964327079E-01
          0                 2           6             6   15     1       0.1696424855E-02       6   15    1       0.1766162058E+01      0.4024677178E+01      0.4032530970E+02      0.1696424855E-02
          0                 3           3             6   15     1       0.8401229546E-04       6   15    1       0.8661576468E-01      0.1991266732E+00      0.4024677178E+01      0.8401229546E-04

    ------------------------------------------------
       NWT REQUIRED            3 OUTER ITERATIONS 
       AND A TOTAL OF         16 INNER ITERATIONS.
    ------------------------------------------------
                                                   Max.-Head-Change                        Max.-Flux-Residual
  Residual-Control   Outer-Iter.   Inner-Iter.     Column Row Layer    Max.-Head-Change    Column Row Layer    Max.-Flux-Residual            L2-New               L2-Old           Solver-Max-Delh
          0                 1           7             6   15     1      -0.9128241944E-02       6   15    1      -0.8115559474E+01      0.1940832574E+02      0.1991266732E+00     -0.9128241944E-02
          0                 2           5             6   15     1       0.7875378734E-03       6   15    1       0.8112015115E+00      0.1935108101E+01      0.1940832574E+02      0.7875378734E-03
          0                 3           3             6   15     1       0.4094774685E-04       6   15    1       0.4256514760E-01      0.9770669686E-01      0.1935108101E+01      0.4094774685E-04

    ------------------------------------------------
       NWT REQUIRED            3 OUTER ITERATIONS 
       AND A TOTAL OF         15 INNER ITERATIONS.
    ------------------------------------------------
                                                   Max.-Head-Change                        Max.-Flux-Residual
  Residual-Control   Outer-Iter.   Inner-Iter.     Column Row Layer    Max.-Head-Change    Column Row Layer    Max.-Flux-Residual            L2-New               L2-Old           Solver-Max-Delh
          0                 1           6             1   15     1      -0.4727425561E-02       1   15    1      -0.4468735183E+01      0.8112527113E+01      0.9770669686E-01     -0.4727425561E-02
          0                 2           5             1   15     1       0.4070909557E-03       1   15    1       0.4477294319E+00      0.8079204599E+00      0.8112527113E+01      0.4070909557E-03
          0                 3           3             1   15     1       0.2168191755E-04       1   15    1       0.2277187794E-01      0.4321919012E-01      0.8079204599E+00      0.2168191755E-04

    ------------------------------------------------
       NWT REQUIRED            3 OUTER ITERATIONS 
       AND A TOTAL OF         14 INNER ITERATIONS.
    ------------------------------------------------
                                                   Max.-Head-Change                        Max.-Flux-Residual
  Residual-Control   Outer-Iter.   Inner-Iter.     Column Row Layer    Max.-Head-Change    Column Row Layer    Max.-Flux-Residual            L2-New               L2-Old           Solver-Max-Delh
          0                 1           6             1   15     1      -0.2675238099E-02       1   15    1      -0.2452420517E+01      0.3996240321E+01      0.4321919012E-01     -0.2675238099E-02
          0                 2           4             1   15     1       0.2262729905E-03       1   15    1       0.2382529809E+00      0.3958613042E+00      0.3996240321E+01      0.2262729905E-03
          0                 3           2             1   15     1       0.1075688567E-04       1   15    1       0.1078485901E-01      0.2245062893E-01      0.3958613042E+00      0.1075688567E-04

    ------------------------------------------------
       NWT REQUIRED            3 OUTER ITERATIONS 
       AND A TOTAL OF         12 INNER ITERATIONS.
    ------------------------------------------------
                                                   Max.-Head-Change                        Max.-Flux-Residual
  Residual-Control   Outer-Iter.   Inner-Iter.     Column Row Layer    Max.-Head-Change    Column Row Layer    Max.-Flux-Residual            L2-New               L2-Old           Solver-Max-Delh
          0                 1           5             1   12     2      -0.1326651119E-02       1   15    1      -0.1149744809E+01      0.2173539785E+01      0.2245062893E-01     -0.1326651119E-02
          0                 2           4             1   12     2       0.1138249435E-03       1   15    1       0.1200415511E+00      0.2146257786E+00      0.2173539785E+01      0.1138249435E-03
          0                 3           2             1   12     1       0.8618812704E-05       1   10    1       0.8868935518E-02      0.1821914539E-01      0.2146257786E+00      0.8618812704E-05

    ------------------------------------------------
       NWT REQUIRED            3 OUTER ITERATIONS 
       AND A TOTAL OF         11 INNER ITERATIONS.
    ------------------------------------------------
                                                   Max.-Head-Change                        Max.-Flux-Residual
  Residual-Control   Outer-Iter.   Inner-Iter.     Column Row Layer    Max.-Head-Change    Column Row Layer    Max.-Flux-Residual            L2-New               L2-Old           Solver-Max-Delh
          0                 1           5             1   12     1      -0.5583898376E-03       1   15    1      -0.3937698854E+00      0.9168038827E+00      0.1821914539E-01     -0.5583898376E-03
          0                 2           3             1   12     1       0.5099645827E-04       1   12    1       0.4395516554E-01      0.9403034685E-01      0.9168038827E+00      0.5099645827E-04

    ------------------------------------------------
       NWT REQUIRED            2 OUTER ITERATIONS 
       AND A TOTAL OF          8 INNER ITERATIONS.
    ------------------------------------------------
                                                   Max.-Head-Change                        Max.-Flux-Residual
  Residual-Control   Outer-Iter.   Inner-Iter.     Column Row Layer    Max.-Head-Change    Column Row Layer    Max.-Flux-Residual            L2-New               L2-Old           Solver-Max-Delh
          0                 1           4             1   11     1      -0.1052396490E-03       6   15    1       0.8556860316E-01      0.2328465032E+00      0.9403034685E-01     -0.1052396490E-03
          0                 2           2             1   11     3      -0.8497139031E-05       6   15    1      -0.1196011089E-01      0.2720260841E-01      0.2328465032E+00     -0.8497139031E-05

    ------------------------------------------------
       NWT REQUIRED            2 OUTER ITERATIONS 
       AND A TOTAL OF          6 INNER ITERATIONS.
    ------------------------------------------------

 OUTPUT CONTROL FOR STRESS PERIOD      7   TIME STEP     2
    SAVE BUDGET
 UBDSV1 SAVING "         STORAGE" ON UNIT7013 AT TIME STEP    2, STRESS PERIOD   7
 UBDSV2 SAVING "   CONSTANT HEAD" ON UNIT7013 AT TIME STEP    2, STRESS PERIOD   7
 UBDSV1 SAVING "FLOW RIGHT FACE " ON UNIT7013 AT TIME STEP    2, STRESS PERIOD   7
 UBDSV1 SAVING "FLOW FRONT FACE " ON UNIT7013 AT TIME STEP    2, STRESS PERIOD   7
 UBDSV1 SAVING "FLOW LOWER FACE " ON UNIT7013 AT TIME STEP    2, STRESS PERIOD   7
 UBDSV4 SAVING "  STREAM LEAKAGE" ON UNIT7013 AT TIME STEP    2, STRESS PERIOD   7



 
 
 
 
 
 
 
 
 UBDSV3 SAVING "FARM  NET  RECH." ON UNIT7013 AT TIME STEP    2, STRESS PERIOD   7
 UBDSV4 SAVING " GHOST-NODE HEAD" ON UNIT7013 AT TIME STEP    2, STRESS PERIOD   7
1
  VOLUMETRIC BUDGET FOR ENTIRE MODEL AT END OF TIME STEP    2 IN STRESS PERIOD      7
  ------------------------------------------------------------------------------

     CUMULATIVE VOLUMES      L**3       RATES FOR THIS TIME STEP      L**3/T
     ------------------                 ------------------------

           IN:                                      IN:
           ---                                      ---
             STORAGE =       71915.8438               STORAGE =         177.6136
       CONSTANT HEAD =           0.0000         CONSTANT HEAD =           0.0000
      STREAM LEAKAGE =      305515.8750        STREAM LEAKAGE =           0.0000
          FARM WELLS =           0.0000            FARM WELLS =           0.0000
    FARM  NET  RECH. =       94420.1484      FARM  NET  RECH. =           0.0000
     GHOST-NODE HEAD =     3820435.7500       GHOST-NODE HEAD =        2436.7290

            TOTAL IN =     4292287.5000              TOTAL IN =        2614.3428

          OUT:                                     OUT:
          ----                                     ----
             STORAGE =     3960142.0000               STORAGE =          60.2088
       CONSTANT HEAD =           0.0000         CONSTANT HEAD =           0.0000
      STREAM LEAKAGE =           0.0000        STREAM LEAKAGE =           0.0000
          FARM WELLS =           0.0000            FARM WELLS =           0.0000
    FARM  NET  RECH. =           0.0000      FARM  NET  RECH. =           0.0000
     GHOST-NODE HEAD =      332143.8438       GHOST-NODE HEAD =        2554.1272

           TOTAL OUT =     4292286.0000             TOTAL OUT =        2614.3359

            IN - OUT =           1.5000              IN - OUT =       6.8359E-03

 PERCENT DISCREPANCY =           0.00     PERCENT DISCREPANCY =           0.00






          TIME SUMMARY AT END OF TIME STEP     2 IN STRESS PERIOD      7
                    SECONDS     MINUTES      HOURS       DAYS        YEARS
                    -----------------------------------------------------------
   TIME STEP LENGTH 1.31414E+06  21902.      365.04      15.210     4.16427E-02
 STRESS PERIOD TIME 2.62829E+06  43805.      730.08      30.420     8.32854E-02
         TOTAL TIME 1.83980E+07 3.06634E+05  5110.6      212.94     0.58300    
1
1
  FLUX ACROSS PARENT-CHILD INTERFACE AT TIME STEP  2 IN STRESS PERIOD    7
  ------------------------------------------------------------------------
 G-N FLUX        PARENT        CHILD         DIFFERENCE      % DIFFERENCE
  RATE IN:      2.4375E+03    2.4367E+03     7.3389E-01        0.0301
 RATE OUT:      2.5544E+03    2.5541E+03     3.1396E-01        0.0123
1
                            STRESS PERIOD NO.      8, LENGTH =   30.42000    
                            -----------------------------------------------

                              NUMBER OF TIME STEPS =     2

                               MULTIPLIER FOR DELT =     1.000

                            INITIAL TIME STEP SIZE =   15.21000    

 REUSING STREAM SEGMENT DATA FROM LAST STRESS PERIOD

 Parameter:  WELLS1
 WELL NO. LAYER    ROW    COL  F-WELL ID    FARM ID         QMAX         QMAXRESET       LGRGRID         
 --------------------------------------------------------------------------------------------------------
       1      1      2      2          5          2      2.0000E+03              0              0
       2      1      5      5          6          2      1.0000E+03              0              0

 NUMBER OF ACTIVE FARM WELLS:        2

 FARM-ID  NUMBER OF WELLS PER FARM  TOTAL MAX.CAPACITY PER FARM
       1                         0                       0.0000
       2                         2                    3000.0000
       3                         0                       0.0000
       4                         0                       0.0000
       5                         0                       0.0000
       6                         0                       0.0000
       7                         0                       0.0000
       8                         0                       0.0000

Transpiratory and Evaporative Fractions of Crop Consumptive Use
    % Transpiration % Evap. for Precip. % Evap. for Irrig.
    3          0.000          1.000          1.000
    5          0.927          0.073          0.000

FRACTIONS OF IN-EFFICIENT LOSSES TO SW-RUNOFF FROM 
     PRECIPITATION:  IRRIGATION:
    3          0.600          0.500
    5          0.500          0.000
 
 SOLVING FOR HEAD 
                                                   Max.-Head-Change                        Max.-Flux-Residual
  Residual-Control   Outer-Iter.   Inner-Iter.     Column Row Layer    Max.-Head-Change    Column Row Layer    Max.-Flux-Residual            L2-New               L2-Old           Solver-Max-Delh
          0                 1           9             1   14     1       0.5332451765E+00       1   14    1       0.5642330991E+03      0.7876174992E+03      0.2720260841E-01      0.5332451765E+00
          0                 2           7             1   14     1      -0.4665855333E-01       1   14    1      -0.5825861194E+02      0.8184048860E+02      0.7876174992E+03     -0.4665855333E-01
          0                 3           6             1   14     1      -0.2361982591E-02       1   14    1      -0.2951099780E+01      0.4135838569E+01      0.8184048860E+02     -0.2361982591E-02
          0                 4           4             1   14     1      -0.1234375471E-03       1   14    1      -0.1536971261E+00      0.2128088607E+00      0.4135838569E+01     -0.1234375471E-03
          0                 5           1             6   13     1      -0.3363516842E-05       6   13    1      -0.7261272985E-02      0.1178897701E-01      0.2128088607E+00     -0.3363516842E-05

    ------------------------------------------------
       NWT REQUIRED            5 OUTER ITERATIONS 
       AND A TOTAL OF         27 INNER ITERATIONS.
    ------------------------------------------------
                                                   Max.-Head-Change                        Max.-Flux-Residual
  Residual-Control   Outer-Iter.   Inner-Iter.     Column Row Layer    Max.-Head-Change    Column Row Layer    Max.-Flux-Residual            L2-New               L2-Old           Solver-Max-Delh
          0                 1           9             1   14     1      -0.6181885632E+00       1   14    1      -0.6090506132E+03      0.8420903123E+03      0.1178897701E-01     -0.6181885632E+00
          0                 2           8             1   14     1       0.5172390502E-01       1   14    1       0.5763010772E+02      0.8002999134E+02      0.8420903123E+03      0.5172390502E-01
          0                 3           6             1   14     1       0.2622498094E-02       1   14    1       0.2911742453E+01      0.4023904731E+01      0.8002999134E+02      0.2622498094E-02
          0                 4           4             1   14     1       0.1369255623E-03       1   14    1       0.1532476004E+00      0.2087293853E+00      0.4023904731E+01      0.1369255623E-03
          0                 5           2             5   15     1       0.5206309238E-05       6   14    1       0.6923388690E-02      0.1299286740E-01      0.2087293853E+00      0.5206309238E-05

    ------------------------------------------------
       NWT REQUIRED            5 OUTER ITERATIONS 
       AND A TOTAL OF         29 INNER ITERATIONS.
    ------------------------------------------------
                                                   Max.-Head-Change                        Max.-Flux-Residual
  Residual-Control   Outer-Iter.   Inner-Iter.     Column Row Layer    Max.-Head-Change    Column Row Layer    Max.-Flux-Residual            L2-New               L2-Old           Solver-Max-Delh
          0                 1           8             6   14     1      -0.5943873472E-01       6   15    1      -0.5237386493E+02      0.1011304895E+03      0.1299286740E-01     -0.5943873472E-01
          0                 2           6             6   14     1       0.5137670639E-02       6   15    1       0.5235754166E+01      0.1007823076E+02      0.1011304895E+03      0.5137670639E-02
          0                 3           5             6   14     1       0.2599605985E-03       6   15    1       0.2659391060E+00      0.5106132685E+00      0.1007823076E+02      0.2599605985E-03
          0                 4           2             6   14     1       0.1278922706E-04       6   15    1       0.1191884189E-01      0.2862944620E-01      0.5106132685E+00      0.1278922706E-04

    ------------------------------------------------
       NWT REQUIRED            4 OUTER ITERATIONS 
       AND A TOTAL OF         21 INNER ITERATIONS.
    ------------------------------------------------
                                                   Max.-Head-Change                        Max.-Flux-Residual
  Residual-Control   Outer-Iter.   Inner-Iter.     Column Row Layer    Max.-Head-Change    Column Row Layer    Max.-Flux-Residual            L2-New               L2-Old           Solver-Max-Delh
          0                 1           7             1   11     1       0.3384626328E-01       1   10    1       0.3160329717E+02      0.7206215688E+02      0.2862944620E-01      0.3384626328E-01
          0                 2           6             1   11     1      -0.2916262507E-02       1   11    1      -0.3154092368E+01      0.7199207125E+01      0.7206215688E+02     -0.2916262507E-02
          0                 3           4             1   11     1      -0.1478309769E-03       1   10    1      -0.1621441792E+00      0.3697040524E+00      0.7199207125E+01     -0.1478309769E-03
          0                 4           2             5   15     1       0.6392881811E-05       4   15    1       0.6926104892E-02      0.1503272880E-01      0.3697040524E+00      0.6392881811E-05

    ------------------------------------------------
       NWT REQUIRED            4 OUTER ITERATIONS 
       AND A TOTAL OF         19 INNER ITERATIONS.
    ------------------------------------------------
                                                   Max.-Head-Change                        Max.-Flux-Residual
  Residual-Control   Outer-Iter.   Inner-Iter.     Column Row Layer    Max.-Head-Change    Column Row Layer    Max.-Flux-Residual            L2-New               L2-Old           Solver-Max-Delh
          0                 1           7             1   11     1       0.2510248313E-01       1   10    1       0.2170448234E+02      0.4318669978E+02      0.1503272880E-01      0.2510248313E-01
          0                 2           6             1   11     1      -0.2159210667E-02       1   12    1      -0.2165034905E+01      0.4312692365E+01      0.4318669978E+02     -0.2159210667E-02
          0                 3           4             1   11     1      -0.1078981154E-03       1   10    1      -0.1093406731E+00      0.2153390978E+00      0.4312692365E+01     -0.1078981154E-03
          0                 4           2             5   15     1       0.6007190072E-05       6   14    1       0.7822084823E-02      0.1577362688E-01      0.2153390978E+00      0.6007190072E-05

    ------------------------------------------------
       NWT REQUIRED            4 OUTER ITERATIONS 
       AND A TOTAL OF         19 INNER ITERATIONS.
    ------------------------------------------------
                                                   Max.-Head-Change                        Max.-Flux-Residual
  Residual-Control   Outer-Iter.   Inner-Iter.     Column Row Layer    Max.-Head-Change    Column Row Layer    Max.-Flux-Residual            L2-New               L2-Old           Solver-Max-Delh
          0                 1           6             1   11     1       0.9391281193E-02       1   11    1       0.8231840850E+01      0.1648698961E+02      0.1577362688E-01      0.9391281193E-02
          0                 2           5             1   11     1      -0.8025093106E-03       1   12    1      -0.8165925408E+00      0.1636382491E+01      0.1648698961E+02     -0.8025093106E-03
          0                 3           3             1   11     1      -0.4271938233E-04       1   10    1      -0.4496038589E-01      0.8869034521E-01      0.1636382491E+01     -0.4271938233E-04

    ------------------------------------------------
       NWT REQUIRED            3 OUTER ITERATIONS 
       AND A TOTAL OF         14 INNER ITERATIONS.
    ------------------------------------------------
                                                   Max.-Head-Change                        Max.-Flux-Residual
  Residual-Control   Outer-Iter.   Inner-Iter.     Column Row Layer    Max.-Head-Change    Column Row Layer    Max.-Flux-Residual            L2-New               L2-Old           Solver-Max-Delh
          0                 1           6             1   15     1      -0.2787181683E-02       1   15    1      -0.2782912530E+01      0.4752999118E+01      0.8869034521E-01     -0.2787181683E-02
          0                 2           4             1   15     1       0.2373673429E-03       1   15    1       0.2723194420E+00      0.4709331940E+00      0.4752999118E+01      0.2373673429E-03
          0                 3           2             1   15     1       0.9937799651E-05       6   15    1       0.1473166328E-01      0.2875725692E-01      0.4709331940E+00      0.9937799651E-05

    ------------------------------------------------
       NWT REQUIRED            3 OUTER ITERATIONS 
       AND A TOTAL OF         12 INNER ITERATIONS.
    ------------------------------------------------
                                                   Max.-Head-Change                        Max.-Flux-Residual
  Residual-Control   Outer-Iter.   Inner-Iter.     Column Row Layer    Max.-Head-Change    Column Row Layer    Max.-Flux-Residual            L2-New               L2-Old           Solver-Max-Delh
          0                 1           5             1   12     2      -0.2490043855E-02       1   15    1      -0.1895135334E+01      0.4064746595E+01      0.2875725692E-01     -0.2490043855E-02
          0                 2           4             1   12     2       0.2147545702E-03       1   15    1       0.1818857401E+00      0.4005345490E+00      0.4064746595E+01      0.2147545702E-03
          0                 3           2             1   15     1       0.1259902424E-04       1   15    1       0.1328096411E-01      0.2881469550E-01      0.4005345490E+00      0.1259902424E-04

    ------------------------------------------------
       NWT REQUIRED            3 OUTER ITERATIONS 
       AND A TOTAL OF         11 INNER ITERATIONS.
    ------------------------------------------------
                                                   Max.-Head-Change                        Max.-Flux-Residual
  Residual-Control   Outer-Iter.   Inner-Iter.     Column Row Layer    Max.-Head-Change    Column Row Layer    Max.-Flux-Residual            L2-New               L2-Old           Solver-Max-Delh
          0                 1           5             1   12     1      -0.1589844194E-02       1   12    1      -0.1189458282E+01      0.2722707360E+01      0.2881469550E-01     -0.1589844194E-02
          0                 2           4             1   12     1       0.1379732918E-03       1   12    1       0.1208078765E+00      0.2703677341E+00      0.2722707360E+01      0.1379732918E-03
          0                 3           2             1   11     1       0.1032315354E-04       1   11    1       0.1017385081E-01      0.1902097540E-01      0.2703677341E+00      0.1032315354E-04

    ------------------------------------------------
       NWT REQUIRED            3 OUTER ITERATIONS 
       AND A TOTAL OF         11 INNER ITERATIONS.
    ------------------------------------------------
                                                   Max.-Head-Change                        Max.-Flux-Residual
  Residual-Control   Outer-Iter.   Inner-Iter.     Column Row Layer    Max.-Head-Change    Column Row Layer    Max.-Flux-Residual            L2-New               L2-Old           Solver-Max-Delh
          0                 1           5             1   11     1      -0.6375753253E-03       1   12    1      -0.4980831501E+00      0.1096222287E+01      0.1902097540E-01     -0.6375753253E-03
          0                 2           3             1   11     1       0.5233747940E-04       1   11    1       0.4839012306E-01      0.1087014502E+00      0.1096222287E+01      0.5233747940E-04

    ------------------------------------------------
       NWT REQUIRED            2 OUTER ITERATIONS 
       AND A TOTAL OF          8 INNER ITERATIONS.
    ------------------------------------------------
                                                   Max.-Head-Change                        Max.-Flux-Residual
  Residual-Control   Outer-Iter.   Inner-Iter.     Column Row Layer    Max.-Head-Change    Column Row Layer    Max.-Flux-Residual            L2-New               L2-Old           Solver-Max-Delh
          0                 1           4             1   12     3       0.1969630902E-03       6   15    1       0.1468729565E+00      0.2498502345E+00      0.1087014502E+00      0.1969630902E-03
          0                 2           2             1   12     3      -0.1619242572E-04       6   13    1      -0.1176374528E-01      0.3083853909E-01      0.2498502345E+00     -0.1619242572E-04

    ------------------------------------------------
       NWT REQUIRED            2 OUTER ITERATIONS 
       AND A TOTAL OF          6 INNER ITERATIONS.
    ------------------------------------------------

 OUTPUT CONTROL FOR STRESS PERIOD      8   TIME STEP     1
    SAVE BUDGET
 UBDSV1 SAVING "         STORAGE" ON UNIT7013 AT TIME STEP    1, STRESS PERIOD   8
 UBDSV2 SAVING "   CONSTANT HEAD" ON UNIT7013 AT TIME STEP    1, STRESS PERIOD   8
 UBDSV1 SAVING "FLOW RIGHT FACE " ON UNIT7013 AT TIME STEP    1, STRESS PERIOD   8
 UBDSV1 SAVING "FLOW FRONT FACE " ON UNIT7013 AT TIME STEP    1, STRESS PERIOD   8
 UBDSV1 SAVING "FLOW LOWER FACE " ON UNIT7013 AT TIME STEP    1, STRESS PERIOD   8
 UBDSV4 SAVING "  STREAM LEAKAGE" ON UNIT7013 AT TIME STEP    1, STRESS PERIOD   8



 
 
 
 
 
 
 
 
 UBDSV3 SAVING "FARM  NET  RECH." ON UNIT7013 AT TIME STEP    1, STRESS PERIOD   8
 UBDSV4 SAVING " GHOST-NODE HEAD" ON UNIT7013 AT TIME STEP    1, STRESS PERIOD   8
1
  FLUX ACROSS PARENT-CHILD INTERFACE AT TIME STEP  1 IN STRESS PERIOD    8
  ------------------------------------------------------------------------
 G-N FLUX        PARENT        CHILD         DIFFERENCE      % DIFFERENCE
  RATE IN:      2.3881E+03    2.3876E+03     5.5054E-01        0.0231
 RATE OUT:      2.4886E+03    2.4877E+03     8.8330E-01        0.0355
 
 SOLVING FOR HEAD 
                                                   Max.-Head-Change                        Max.-Flux-Residual
  Residual-Control   Outer-Iter.   Inner-Iter.     Column Row Layer    Max.-Head-Change    Column Row Layer    Max.-Flux-Residual            L2-New               L2-Old           Solver-Max-Delh
          0                 1           9             1   14     1       0.5878834184E+00       1   14    1       0.5970846564E+03      0.8269416573E+03      0.3083853909E-01      0.5878834184E+00
          0                 2           8             1   14     1      -0.5150075014E-01       1   14    1      -0.6188032695E+02      0.8599223616E+02      0.8269416573E+03     -0.5150075014E-01
          0                 3           6             1   14     1      -0.2608622650E-02       1   14    1      -0.3136979850E+01      0.4349506254E+01      0.8599223616E+02     -0.2608622650E-02
          0                 4           4             1   14     1      -0.1349062319E-03       1   14    1      -0.1621717692E+00      0.2228505375E+00      0.4349506254E+01     -0.1349062319E-03
          0                 5           2             3   15     1      -0.6436877266E-05       3   15    1      -0.7064974285E-02      0.1646308938E-01      0.2228505375E+00     -0.6436877266E-05

    ------------------------------------------------
       NWT REQUIRED            5 OUTER ITERATIONS 
       AND A TOTAL OF         29 INNER ITERATIONS.
    ------------------------------------------------
                                                   Max.-Head-Change                        Max.-Flux-Residual
  Residual-Control   Outer-Iter.   Inner-Iter.     Column Row Layer    Max.-Head-Change    Column Row Layer    Max.-Flux-Residual            L2-New               L2-Old           Solver-Max-Delh
          0                 1           9             1   14     1      -0.6145783175E+00       1   14    1      -0.6055044177E+03      0.8406108486E+03      0.1646308938E-01     -0.6145783175E+00
          0                 2           8             1   14     1       0.5142445252E-01       1   14    1       0.5729826949E+02      0.7987254989E+02      0.8406108486E+03      0.5142445252E-01
          0                 3           6             1   14     1       0.2605422997E-02       1   14    1       0.2888777780E+01      0.4013958644E+01      0.7987254989E+02      0.2605422997E-02
          0                 4           4             1   14     1       0.1338224397E-03       1   14    1       0.1505767356E+00      0.2049644825E+00      0.4013958644E+01      0.1338224397E-03
          0                 5           2             1   10     1       0.5612665973E-05       1   10    1       0.6795286899E-02      0.1411125705E-01      0.2049644825E+00      0.5612665973E-05

    ------------------------------------------------
       NWT REQUIRED            5 OUTER ITERATIONS 
       AND A TOTAL OF         29 INNER ITERATIONS.
    ------------------------------------------------
                                                   Max.-Head-Change                        Max.-Flux-Residual
  Residual-Control   Outer-Iter.   Inner-Iter.     Column Row Layer    Max.-Head-Change    Column Row Layer    Max.-Flux-Residual            L2-New               L2-Old           Solver-Max-Delh
          0                 1           8             6   14     1      -0.5828352086E-01       6   15    1      -0.4990693908E+02      0.1005536625E+03      0.1411125705E-01     -0.5828352086E-01
          0                 2           6             6   14     1       0.5038740287E-02       6   15    1       0.4988977507E+01      0.1001470039E+02      0.1005536625E+03      0.5038740287E-02
          0                 3           5             6   14     1       0.2508077977E-03       6   15    1       0.2504873698E+00      0.5027663293E+00      0.1001470039E+02      0.2508077977E-03
          0                 4           2             6   14     1       0.1280802189E-04       6   15    1       0.1291065229E-01      0.2608565973E-01      0.5027663293E+00      0.1280802189E-04

    ------------------------------------------------
       NWT REQUIRED            4 OUTER ITERATIONS 
       AND A TOTAL OF         21 INNER ITERATIONS.
    ------------------------------------------------
                                                   Max.-Head-Change                        Max.-Flux-Residual
  Residual-Control   Outer-Iter.   Inner-Iter.     Column Row Layer    Max.-Head-Change    Column Row Layer    Max.-Flux-Residual            L2-New               L2-Old           Solver-Max-Delh
          0                 1           7             6   15     1      -0.2878032780E-01       6   15    1      -0.2674271696E+02      0.6259265528E+02      0.2608565973E-01     -0.2878032780E-01
          0                 2           5             6   15     1       0.2490266271E-02       6   15    1       0.2680158671E+01      0.6258224981E+01      0.6259265528E+02      0.2490266271E-02
          0                 3           3             6   15     1       0.1247681384E-03       6   15    1       0.1324605704E+00      0.3129886244E+00      0.6258224981E+01      0.1247681384E-03
          0                 4           2             1   11     1      -0.9719338618E-05       1   12    1      -0.1106295676E-01      0.2329652255E-01      0.3129886244E+00     -0.9719338618E-05

    ------------------------------------------------
       NWT REQUIRED            4 OUTER ITERATIONS 
       AND A TOTAL OF         17 INNER ITERATIONS.
    ------------------------------------------------
                                                   Max.-Head-Change                        Max.-Flux-Residual
  Residual-Control   Outer-Iter.   Inner-Iter.     Column Row Layer    Max.-Head-Change    Column Row Layer    Max.-Flux-Residual            L2-New               L2-Old           Solver-Max-Delh
          0                 1           7             1   11     1       0.2199347277E-01       1   10    1       0.1939581194E+02      0.3980662226E+02      0.2329652255E-01      0.2199347277E-01
          0                 2           5             1   11     1      -0.1888273386E-02       1   10    1      -0.1928800351E+01      0.3972074276E+01      0.3980662226E+02     -0.1888273386E-02
          0                 3           4             1   11     1      -0.9858541253E-04       1   11    1      -0.1022490537E+00      0.2005695019E+00      0.3972074276E+01     -0.9858541253E-04

    ------------------------------------------------
       NWT REQUIRED            3 OUTER ITERATIONS 
       AND A TOTAL OF         16 INNER ITERATIONS.
    ------------------------------------------------
                                                   Max.-Head-Change                        Max.-Flux-Residual
  Residual-Control   Outer-Iter.   Inner-Iter.     Column Row Layer    Max.-Head-Change    Column Row Layer    Max.-Flux-Residual            L2-New               L2-Old           Solver-Max-Delh
          0                 1           6             1   11     1       0.9450464627E-02       1   11    1       0.8330581640E+01      0.1681845691E+02      0.2005695019E+00      0.9450464627E-02
          0                 2           5             1   11     1      -0.8147708642E-03       1   12    1      -0.8346908564E+00      0.1680287348E+01      0.1681845691E+02     -0.8147708642E-03
          0                 3           3             1   11     1      -0.3996257527E-04       1   11    1      -0.4298856657E-01      0.8342427281E-01      0.1680287348E+01     -0.3996257527E-04

    ------------------------------------------------
       NWT REQUIRED            3 OUTER ITERATIONS 
       AND A TOTAL OF         14 INNER ITERATIONS.
    ------------------------------------------------
                                                   Max.-Head-Change                        Max.-Flux-Residual
  Residual-Control   Outer-Iter.   Inner-Iter.     Column Row Layer    Max.-Head-Change    Column Row Layer    Max.-Flux-Residual            L2-New               L2-Old           Solver-Max-Delh
          0                 1           6             1   15     1      -0.2592163086E-02       1   15    1      -0.2654677276E+01      0.4984116782E+01      0.8342427281E-01     -0.2592163086E-02
          0                 2           4             1   15     1       0.2206801989E-03       1   15    1       0.2648690795E+00      0.4912870696E+00      0.4984116782E+01      0.2206801989E-03
          0                 3           2             1   15     1       0.1096088855E-04       6   15    1       0.1341795997E-01      0.3011605931E-01      0.4912870696E+00      0.1096088855E-04

    ------------------------------------------------
       NWT REQUIRED            3 OUTER ITERATIONS 
       AND A TOTAL OF         12 INNER ITERATIONS.
    ------------------------------------------------
                                                   Max.-Head-Change                        Max.-Flux-Residual
  Residual-Control   Outer-Iter.   Inner-Iter.     Column Row Layer    Max.-Head-Change    Column Row Layer    Max.-Flux-Residual            L2-New               L2-Old           Solver-Max-Delh
          0                 1           5             1   12     2      -0.2016927818E-02       1   15    1      -0.1809952115E+01      0.3459412694E+01      0.3011605931E-01     -0.2016927818E-02
          0                 2           4             1   12     2       0.1736191171E-03       1   15    1       0.1728588848E+00      0.3407405514E+00      0.3459412694E+01      0.1736191171E-03
          0                 3           2             1   14     1       0.1138807695E-04       1   15    1       0.1193478919E-01      0.2310224153E-01      0.3407405514E+00      0.1138807695E-04

    ------------------------------------------------
       NWT REQUIRED            3 OUTER ITERATIONS 
       AND A TOTAL OF         11 INNER ITERATIONS.
    ------------------------------------------------
                                                   Max.-Head-Change                        Max.-Flux-Residual
  Residual-Control   Outer-Iter.   Inner-Iter.     Column Row Layer    Max.-Head-Change    Column Row Layer    Max.-Flux-Residual            L2-New               L2-Old           Solver-Max-Delh
          0                 1           5             1   11     2      -0.1444691854E-02       1   12    1      -0.1018774978E+01      0.2469675333E+01      0.2310224153E-01     -0.1444691854E-02
          0                 2           4             1   11     2       0.1244932831E-03       1   12    1       0.1045514890E+00      0.2490980077E+00      0.2469675333E+01      0.1244932831E-03
          0                 3           2             1   10     1       0.6604084103E-05       1   10    1       0.9258148028E-02      0.1513461350E-01      0.2490980077E+00      0.6604084103E-05

    ------------------------------------------------
       NWT REQUIRED            3 OUTER ITERATIONS 
       AND A TOTAL OF         11 INNER ITERATIONS.
    ------------------------------------------------
                                                   Max.-Head-Change                        Max.-Flux-Residual
  Residual-Control   Outer-Iter.   Inner-Iter.     Column Row Layer    Max.-Head-Change    Column Row Layer    Max.-Flux-Residual            L2-New               L2-Old           Solver-Max-Delh
          0                 1           5             1   11     1      -0.6426709749E-03       1   12    1      -0.5003962349E+00      0.1103278928E+01      0.1513461350E-01     -0.6426709749E-03
          0                 2           3             1   12     1       0.5788186716E-04       1   12    1       0.5664223048E-01      0.1147481015E+00      0.1103278928E+01      0.5788186716E-04

    ------------------------------------------------
       NWT REQUIRED            2 OUTER ITERATIONS 
       AND A TOTAL OF          8 INNER ITERATIONS.
    ------------------------------------------------
                                                   Max.-Head-Change                        Max.-Flux-Residual
  Residual-Control   Outer-Iter.   Inner-Iter.     Column Row Layer    Max.-Head-Change    Column Row Layer    Max.-Flux-Residual            L2-New               L2-Old           Solver-Max-Delh
          0                 1           4             1   11     3       0.1611567684E-03       6   15    1       0.1506965658E+00      0.2774621449E+00      0.1147481015E+00      0.1611567684E-03
          0                 2           2             6   15     1      -0.1746018038E-04       6   15    1      -0.2522010630E-01      0.3533428134E-01      0.2774621449E+00     -0.1746018038E-04

    ------------------------------------------------
       NWT REQUIRED            2 OUTER ITERATIONS 
       AND A TOTAL OF          6 INNER ITERATIONS.
    ------------------------------------------------

 OUTPUT CONTROL FOR STRESS PERIOD      8   TIME STEP     2
    SAVE BUDGET
 UBDSV1 SAVING "         STORAGE" ON UNIT7013 AT TIME STEP    2, STRESS PERIOD   8
 UBDSV2 SAVING "   CONSTANT HEAD" ON UNIT7013 AT TIME STEP    2, STRESS PERIOD   8
 UBDSV1 SAVING "FLOW RIGHT FACE " ON UNIT7013 AT TIME STEP    2, STRESS PERIOD   8
 UBDSV1 SAVING "FLOW FRONT FACE " ON UNIT7013 AT TIME STEP    2, STRESS PERIOD   8
 UBDSV1 SAVING "FLOW LOWER FACE " ON UNIT7013 AT TIME STEP    2, STRESS PERIOD   8
 UBDSV4 SAVING "  STREAM LEAKAGE" ON UNIT7013 AT TIME STEP    2, STRESS PERIOD   8



 
 
 
 
 
 
 
 
 UBDSV3 SAVING "FARM  NET  RECH." ON UNIT7013 AT TIME STEP    2, STRESS PERIOD   8
 UBDSV4 SAVING " GHOST-NODE HEAD" ON UNIT7013 AT TIME STEP    2, STRESS PERIOD   8
1
  VOLUMETRIC BUDGET FOR ENTIRE MODEL AT END OF TIME STEP    2 IN STRESS PERIOD      8
  ------------------------------------------------------------------------------

     CUMULATIVE VOLUMES      L**3       RATES FOR THIS TIME STEP      L**3/T
     ------------------                 ------------------------

           IN:                                      IN:
           ---                                      ---
             STORAGE =       75273.7812               STORAGE =          97.2636
       CONSTANT HEAD =           0.0000         CONSTANT HEAD =           0.0000
      STREAM LEAKAGE =      305515.8750        STREAM LEAKAGE =           0.0000
          FARM WELLS =           0.0000            FARM WELLS =           0.0000
    FARM  NET  RECH. =       94420.1484      FARM  NET  RECH. =           0.0000
     GHOST-NODE HEAD =     3892292.7500       GHOST-NODE HEAD =        2336.7383

            TOTAL IN =     4367502.5000              TOTAL IN =        2434.0020

          OUT:                                     OUT:
          ----                                     ----
             STORAGE =     3960606.0000               STORAGE =           7.0945
       CONSTANT HEAD =           0.0000         CONSTANT HEAD =           0.0000
      STREAM LEAKAGE =           0.0000        STREAM LEAKAGE =           0.0000
          FARM WELLS =           0.0000            FARM WELLS =           0.0000
    FARM  NET  RECH. =           0.0000      FARM  NET  RECH. =           0.0000
     GHOST-NODE HEAD =      406895.0312       GHOST-NODE HEAD =        2426.8875

           TOTAL OUT =     4367501.0000             TOTAL OUT =        2433.9819

            IN - OUT =           1.5000              IN - OUT =       2.0020E-02

 PERCENT DISCREPANCY =           0.00     PERCENT DISCREPANCY =           0.00






          TIME SUMMARY AT END OF TIME STEP     2 IN STRESS PERIOD      8
                    SECONDS     MINUTES      HOURS       DAYS        YEARS
                    -----------------------------------------------------------
   TIME STEP LENGTH 1.31414E+06  21902.      365.04      15.210     4.16427E-02
 STRESS PERIOD TIME 2.62829E+06  43805.      730.08      30.420     8.32854E-02
         TOTAL TIME 2.10263E+07 3.50438E+05  5840.6      243.36     0.66628    
1
1
  FLUX ACROSS PARENT-CHILD INTERFACE AT TIME STEP  2 IN STRESS PERIOD    8
  ------------------------------------------------------------------------
 G-N FLUX        PARENT        CHILD         DIFFERENCE      % DIFFERENCE
  RATE IN:      2.3374E+03    2.3367E+03     6.1743E-01        0.0264
 RATE OUT:      2.4277E+03    2.4269E+03     8.6230E-01        0.0355
1
                            STRESS PERIOD NO.      9, LENGTH =   30.42000    
                            -----------------------------------------------

                              NUMBER OF TIME STEPS =     2

                               MULTIPLIER FOR DELT =     1.000

                            INITIAL TIME STEP SIZE =   15.21000    

 REUSING STREAM SEGMENT DATA FROM LAST STRESS PERIOD

 Parameter:  WELLS1
 WELL NO. LAYER    ROW    COL  F-WELL ID    FARM ID         QMAX         QMAXRESET       LGRGRID         
 --------------------------------------------------------------------------------------------------------
       1      1      2      2          5          2      2.0000E+03              0              0
       2      1      5      5          6          2      1.0000E+03              0              0

 NUMBER OF ACTIVE FARM WELLS:        2

 FARM-ID  NUMBER OF WELLS PER FARM  TOTAL MAX.CAPACITY PER FARM
       1                         0                       0.0000
       2                         2                    3000.0000
       3                         0                       0.0000
       4                         0                       0.0000
       5                         0                       0.0000
       6                         0                       0.0000
       7                         0                       0.0000
       8                         0                       0.0000

Transpiratory and Evaporative Fractions of Crop Consumptive Use
    % Transpiration % Evap. for Precip. % Evap. for Irrig.
    3          0.661          0.339          0.339
    5          0.927          0.073          0.000

FRACTIONS OF IN-EFFICIENT LOSSES TO SW-RUNOFF FROM 
     PRECIPITATION:  IRRIGATION:
    3          0.600          0.500
    5          0.500          0.000
 
 SOLVING FOR HEAD 
                                                   Max.-Head-Change                        Max.-Flux-Residual
  Residual-Control   Outer-Iter.   Inner-Iter.     Column Row Layer    Max.-Head-Change    Column Row Layer    Max.-Flux-Residual            L2-New               L2-Old           Solver-Max-Delh
          0                 1          10             3   14     1       0.9703516055E+00       1   14    1       0.6439174666E+03      0.1350003168E+04      0.3533428134E-01      0.9703516055E+00
          0                 2           8             2   14     1      -0.7923575835E-01       4   14    1      -0.1011445374E+03      0.2175930537E+03      0.1350003168E+04     -0.7923575835E-01
          0                 3           7             6   14     1      -0.4975745920E-01       6   14    1      -0.9549168058E+02      0.9620640315E+02      0.2175930537E+03     -0.4975745920E-01
          0                 4           6             6   14     1      -0.1123275250E-01       6   14    1      -0.2083365248E+02      0.2086312182E+02      0.9620640315E+02     -0.1123275250E-01
          0                 5           5             6   14     1      -0.1212698752E-02       6   14    1      -0.2268971408E+01      0.2272702042E+01      0.2086312182E+02     -0.1212698752E-02
          0                 6           3             6   14     1      -0.1298544259E-03       6   14    1      -0.2428965251E+00      0.2449534212E+00      0.2272702042E+01     -0.1298544259E-03
          0                 7           2             6   14     1      -0.9789412558E-05       6   14    1      -0.2087206364E-01      0.2309139334E-01      0.2449534212E+00     -0.9789412558E-05

    ------------------------------------------------
       NWT REQUIRED            7 OUTER ITERATIONS 
       AND A TOTAL OF         41 INNER ITERATIONS.
    ------------------------------------------------
                                                   Max.-Head-Change                        Max.-Flux-Residual
  Residual-Control   Outer-Iter.   Inner-Iter.     Column Row Layer    Max.-Head-Change    Column Row Layer    Max.-Flux-Residual            L2-New               L2-Old           Solver-Max-Delh
          0                 1           9             4   14     1      -0.6315331962E+00       4   14    1      -0.5116315922E+03      0.9152360868E+03      0.2309139334E-01     -0.6315331962E+00
          0                 2           8             4   14     1       0.5276962213E-01       4   14    1       0.4729468312E+02      0.8603439925E+02      0.9152360868E+03      0.5276962213E-01
          0                 3           6             4   14     1       0.2633158807E-02       4   14    1       0.2342187549E+01      0.4283773891E+01      0.8603439925E+02      0.2633158807E-02
          0                 4           4             4   14     1       0.1308548433E-03       4   14    1       0.1170048302E+00      0.2167551629E+00      0.4283773891E+01      0.1308548433E-03
          0                 5           2             4   14     1       0.4529433289E-05       4   14    1       0.5901434051E-02      0.1392035854E-01      0.2167551629E+00      0.4529433289E-05

    ------------------------------------------------
       NWT REQUIRED            5 OUTER ITERATIONS 
       AND A TOTAL OF         29 INNER ITERATIONS.
    ------------------------------------------------
                                                   Max.-Head-Change                        Max.-Flux-Residual
  Residual-Control   Outer-Iter.   Inner-Iter.     Column Row Layer    Max.-Head-Change    Column Row Layer    Max.-Flux-Residual            L2-New               L2-Old           Solver-Max-Delh
          0                 1           7             6   14     1      -0.2431965058E-01       6   15    1      -0.2083933778E+02      0.4359338436E+02      0.1392035854E-01     -0.2431965058E-01
          0                 2           6             6   14     1       0.2104072781E-02       6   15    1       0.2077605368E+01      0.4359996321E+01      0.4359338436E+02      0.2104072781E-02
          0                 3           4             6   14     1       0.1031020821E-03       6   15    1       0.9708746141E-01      0.2159329701E+00      0.4359996321E+01      0.1031020821E-03
          0                 4           2             6   15     1       0.1053951406E-04       6   15    1       0.1367668537E-01      0.1861677684E-01      0.2159329701E+00      0.1053951406E-04

    ------------------------------------------------
       NWT REQUIRED            4 OUTER ITERATIONS 
       AND A TOTAL OF         19 INNER ITERATIONS.
    ------------------------------------------------
                                                   Max.-Head-Change                        Max.-Flux-Residual
  Residual-Control   Outer-Iter.   Inner-Iter.     Column Row Layer    Max.-Head-Change    Column Row Layer    Max.-Flux-Residual            L2-New               L2-Old           Solver-Max-Delh
          0                 1           7             1   11     1       0.3068778275E-01       1   10    1       0.2615228786E+02      0.5527670759E+02      0.1861677684E-01      0.3068778275E-01
          0                 2           6             1   11     1      -0.2641624290E-02       1   10    1      -0.2607863886E+01      0.5530402215E+01      0.5527670759E+02     -0.2641624290E-02
          0                 3           4             1   11     1      -0.1315817042E-03       1   11    1      -0.1310480158E+00      0.2723282973E+00      0.5530402215E+01     -0.1315817042E-03
          0                 4           2             1   12     1      -0.8980535591E-05       1   10    1      -0.1090371795E-01      0.2449632508E-01      0.2723282973E+00     -0.8980535591E-05

    ------------------------------------------------
       NWT REQUIRED            4 OUTER ITERATIONS 
       AND A TOTAL OF         19 INNER ITERATIONS.
    ------------------------------------------------
                                                   Max.-Head-Change                        Max.-Flux-Residual
  Residual-Control   Outer-Iter.   Inner-Iter.     Column Row Layer    Max.-Head-Change    Column Row Layer    Max.-Flux-Residual            L2-New               L2-Old           Solver-Max-Delh
          0                 1           7             1   11     1       0.1983270495E-01       1   10    1       0.1666134370E+02      0.3489917391E+02      0.2449632508E-01      0.1983270495E-01
          0                 2           5             1   11     1      -0.1704797364E-02       1   12    1      -0.1663060390E+01      0.3486544854E+01      0.3489917391E+02     -0.1704797364E-02
          0                 3           4             1   11     1      -0.8728686849E-04       1   11    1      -0.8596016990E-01      0.1763722941E+00      0.3486544854E+01     -0.8728686849E-04

    ------------------------------------------------
       NWT REQUIRED            3 OUTER ITERATIONS 
       AND A TOTAL OF         16 INNER ITERATIONS.
    ------------------------------------------------
                                                   Max.-Head-Change                        Max.-Flux-Residual
  Residual-Control   Outer-Iter.   Inner-Iter.     Column Row Layer    Max.-Head-Change    Column Row Layer    Max.-Flux-Residual            L2-New               L2-Old           Solver-Max-Delh
          0                 1           6             1   11     1       0.6517749285E-02       6   15    1      -0.6107842385E+01      0.1373889264E+02      0.1763722941E+00      0.6517749285E-02
          0                 2           5             1   11     1      -0.5569325944E-03       6   15    1       0.6158278861E+00      0.1371952592E+01      0.1373889264E+02     -0.5569325944E-03
          0                 3           3             1   11     1      -0.2907810135E-04       1   11    1      -0.3263444465E-01      0.7218690227E-01      0.1371952592E+01     -0.2907810135E-04

    ------------------------------------------------
       NWT REQUIRED            3 OUTER ITERATIONS 
       AND A TOTAL OF         14 INNER ITERATIONS.
    ------------------------------------------------
                                                   Max.-Head-Change                        Max.-Flux-Residual
  Residual-Control   Outer-Iter.   Inner-Iter.     Column Row Layer    Max.-Head-Change    Column Row Layer    Max.-Flux-Residual            L2-New               L2-Old           Solver-Max-Delh
          0                 1           6             6   15     1      -0.2944049146E-02       6   15    1      -0.2713587405E+01      0.4802441646E+01      0.7218690227E-01     -0.2944049146E-02
          0                 2           4             6   15     1       0.2541167501E-03       6   15    1       0.2745846734E+00      0.4820536513E+00      0.4802441646E+01      0.2541167501E-03
          0                 3           2             4   15     1       0.1218126332E-04       6   15    1       0.1061902367E-01      0.2567752477E-01      0.4820536513E+00      0.1218126332E-04

    ------------------------------------------------
       NWT REQUIRED            3 OUTER ITERATIONS 
       AND A TOTAL OF         12 INNER ITERATIONS.
    ------------------------------------------------
                                                   Max.-Head-Change                        Max.-Flux-Residual
  Residual-Control   Outer-Iter.   Inner-Iter.     Column Row Layer    Max.-Head-Change    Column Row Layer    Max.-Flux-Residual            L2-New               L2-Old           Solver-Max-Delh
          0                 1           6             1   12     2      -0.2253568834E-02       1   15    1      -0.1617972897E+01      0.3733789599E+01      0.2567752477E-01     -0.2253568834E-02
          0                 2           4             1   12     2       0.1943191496E-03       1   15    1       0.1573972167E+00      0.3703429946E+00      0.3733789599E+01      0.1943191496E-03
          0                 3           2             1   12     2       0.8762737268E-05       1   12    1       0.8172904956E-02      0.1742119858E-01      0.3703429946E+00      0.8762737268E-05

    ------------------------------------------------
       NWT REQUIRED            3 OUTER ITERATIONS 
       AND A TOTAL OF         12 INNER ITERATIONS.
    ------------------------------------------------
                                                   Max.-Head-Change                        Max.-Flux-Residual
  Residual-Control   Outer-Iter.   Inner-Iter.     Column Row Layer    Max.-Head-Change    Column Row Layer    Max.-Flux-Residual            L2-New               L2-Old           Solver-Max-Delh
          0                 1           5             1   12     1      -0.1452093340E-02       1   11    1      -0.1004081335E+01      0.2324687144E+01      0.1742119858E-01     -0.1452093340E-02
          0                 2           4             1   11     1       0.1246502887E-03       1   11    1       0.1039332063E+00      0.2305479550E+00      0.2324687144E+01      0.1246502887E-03
          0                 3           2             1   12     1       0.6427731932E-05       1   12    1       0.8289248100E-02      0.1617555750E-01      0.2305479550E+00      0.6427731932E-05

    ------------------------------------------------
       NWT REQUIRED            3 OUTER ITERATIONS 
       AND A TOTAL OF         11 INNER ITERATIONS.
    ------------------------------------------------
                                                   Max.-Head-Change                        Max.-Flux-Residual
  Residual-Control   Outer-Iter.   Inner-Iter.     Column Row Layer    Max.-Head-Change    Column Row Layer    Max.-Flux-Residual            L2-New               L2-Old           Solver-Max-Delh
          0                 1           5             1   12     1      -0.5901154133E-03       1   11    1      -0.4145170008E+00      0.9302070991E+00      0.1617555750E-01     -0.5901154133E-03
          0                 2           3             1   12     1       0.5393800984E-04       1   12    1       0.4558782955E-01      0.9727605538E-01      0.9302070991E+00      0.5393800984E-04

    ------------------------------------------------
       NWT REQUIRED            2 OUTER ITERATIONS 
       AND A TOTAL OF          8 INNER ITERATIONS.
    ------------------------------------------------
                                                   Max.-Head-Change                        Max.-Flux-Residual
  Residual-Control   Outer-Iter.   Inner-Iter.     Column Row Layer    Max.-Head-Change    Column Row Layer    Max.-Flux-Residual            L2-New               L2-Old           Solver-Max-Delh
          0                 1           4             1   11     3       0.1431320989E-03       1   15    1      -0.7131627534E-01      0.1693416037E+00      0.9727605538E-01      0.1431320989E-03
          0                 2           2             1   11     3      -0.1256168790E-04       1   15    1       0.1328912948E-01      0.2683632995E-01      0.1693416037E+00     -0.1256168790E-04

    ------------------------------------------------
       NWT REQUIRED            2 OUTER ITERATIONS 
       AND A TOTAL OF          6 INNER ITERATIONS.
    ------------------------------------------------

 OUTPUT CONTROL FOR STRESS PERIOD      9   TIME STEP     1
    SAVE BUDGET
 UBDSV1 SAVING "         STORAGE" ON UNIT7013 AT TIME STEP    1, STRESS PERIOD   9
 UBDSV2 SAVING "   CONSTANT HEAD" ON UNIT7013 AT TIME STEP    1, STRESS PERIOD   9
 UBDSV1 SAVING "FLOW RIGHT FACE " ON UNIT7013 AT TIME STEP    1, STRESS PERIOD   9
 UBDSV1 SAVING "FLOW FRONT FACE " ON UNIT7013 AT TIME STEP    1, STRESS PERIOD   9
 UBDSV1 SAVING "FLOW LOWER FACE " ON UNIT7013 AT TIME STEP    1, STRESS PERIOD   9
 UBDSV4 SAVING "  STREAM LEAKAGE" ON UNIT7013 AT TIME STEP    1, STRESS PERIOD   9



 
 
 
 
 
 
 
 
 UBDSV3 SAVING "FARM  NET  RECH." ON UNIT7013 AT TIME STEP    1, STRESS PERIOD   9
 UBDSV4 SAVING " GHOST-NODE HEAD" ON UNIT7013 AT TIME STEP    1, STRESS PERIOD   9
1
  FLUX ACROSS PARENT-CHILD INTERFACE AT TIME STEP  1 IN STRESS PERIOD    9
  ------------------------------------------------------------------------
 G-N FLUX        PARENT        CHILD         DIFFERENCE      % DIFFERENCE
  RATE IN:      1.8230E+03    1.8224E+03     5.9912E-01        0.0329
 RATE OUT:      2.3982E+03    2.3976E+03     6.1987E-01        0.0259
 
 SOLVING FOR HEAD 
                                                   Max.-Head-Change                        Max.-Flux-Residual
  Residual-Control   Outer-Iter.   Inner-Iter.     Column Row Layer    Max.-Head-Change    Column Row Layer    Max.-Flux-Residual            L2-New               L2-Old           Solver-Max-Delh
          0                 1           9             4   14     1       0.7919701456E+00       4   14    1       0.5220549444E+03      0.1013866941E+04      0.2683632995E-01      0.7919701456E+00
          0                 2           8             6   14     1       0.1134232717E+00       6   14    1       0.2961746008E+03      0.3894268340E+03      0.1013866941E+04      0.1134232717E+00
          0                 3           7             6   14     1      -0.7967871437E-01       6   14    1      -0.1627947326E+03      0.1634086887E+03      0.3894268340E+03     -0.7967871437E-01
          0                 4           6             6   14     1      -0.1886236805E-01       6   14    1      -0.3765151104E+02      0.3766032601E+02      0.1634086887E+03     -0.1886236805E-01
          0                 5           5             6   14     1      -0.4062490296E-02       6   14    1      -0.8069202709E+01      0.8069686868E+01      0.3766032601E+02     -0.4062490296E-02
          0                 6           4             6   14     1      -0.8591477099E-03       6   14    1      -0.1699525819E+01      0.1699698034E+01      0.8069686868E+01     -0.8591477099E-03
          0                 7           3             6   14     1      -0.1784008418E-03       6   14    1      -0.3588039384E+00      0.3591331432E+00      0.1699698034E+01     -0.1784008418E-03
          0                 8           2             6   14     1      -0.3564828351E-04       6   14    1      -0.6666902441E-01      0.6806302578E-01      0.3591331432E+00     -0.3564828351E-04

    ------------------------------------------------
       NWT REQUIRED            8 OUTER ITERATIONS 
       AND A TOTAL OF         44 INNER ITERATIONS.
    ------------------------------------------------
                                                   Max.-Head-Change                        Max.-Flux-Residual
  Residual-Control   Outer-Iter.   Inner-Iter.     Column Row Layer    Max.-Head-Change    Column Row Layer    Max.-Flux-Residual            L2-New               L2-Old           Solver-Max-Delh
          0                 1           9             4   14     1      -0.6155817609E+00       4   14    1      -0.4682683495E+03      0.8936482642E+03      0.6806302578E-01     -0.6155817609E+00
          0                 2           8             4   14     1       0.5159380060E-01       4   14    1       0.4341199455E+02      0.8458832473E+02      0.8936482642E+03      0.5159380060E-01
          0                 3           6             4   14     1       0.2574985284E-02       4   14    1       0.2150498056E+01      0.4214625318E+01      0.8458832473E+02      0.2574985284E-02
          0                 4           4             4   14     1       0.1261301633E-03       4   14    1       0.1074246464E+00      0.2130016191E+00      0.4214625318E+01      0.1261301633E-03
          0                 5           2             4   14     1       0.6521490014E-05       6   14    1       0.7690714207E-02      0.1947146662E-01      0.2130016191E+00      0.6521490014E-05

    ------------------------------------------------
       NWT REQUIRED            5 OUTER ITERATIONS 
       AND A TOTAL OF         29 INNER ITERATIONS.
    ------------------------------------------------
                                                   Max.-Head-Change                        Max.-Flux-Residual
  Residual-Control   Outer-Iter.   Inner-Iter.     Column Row Layer    Max.-Head-Change    Column Row Layer    Max.-Flux-Residual            L2-New               L2-Old           Solver-Max-Delh
          0                 1           8             6   14     1      -0.3623451778E-01       6   15    1      -0.3105160690E+02      0.6517753670E+02      0.1947146662E-01     -0.3623451778E-01
          0                 2           6             6   14     1       0.3137943155E-02       6   15    1       0.3106812658E+01      0.6498920739E+01      0.6517753670E+02      0.3137943155E-02
          0                 3           4             6   14     1       0.1508390856E-03       6   15    1       0.1530931412E+00      0.3218211651E+00      0.6498920739E+01      0.1508390856E-03
          0                 4           2             6   13     1       0.1009536177E-04       6   13    1       0.8863820520E-02      0.2481688398E-01      0.3218211651E+00      0.1009536177E-04

    ------------------------------------------------
       NWT REQUIRED            4 OUTER ITERATIONS 
       AND A TOTAL OF         20 INNER ITERATIONS.
    ------------------------------------------------
                                                   Max.-Head-Change                        Max.-Flux-Residual
  Residual-Control   Outer-Iter.   Inner-Iter.     Column Row Layer    Max.-Head-Change    Column Row Layer    Max.-Flux-Residual            L2-New               L2-Old           Solver-Max-Delh
          0                 1           7             6   15     1      -0.2798685166E-01       6   15    1      -0.2614335263E+02      0.5600841615E+02      0.2481688398E-01     -0.2798685166E-01
          0                 2           5             6   15     1       0.2420351833E-02       6   15    1       0.2618374668E+01      0.5602788850E+01      0.5600841615E+02      0.2420351833E-02
          0                 3           3             6   15     1       0.1209580863E-03       6   15    1       0.1253564689E+00      0.2843804155E+00      0.5602788850E+01      0.1209580863E-03
          0                 4           2             6   14     1       0.5986453156E-05       1   10    1      -0.8459221805E-02      0.1583110310E-01      0.2843804155E+00      0.5986453156E-05

    ------------------------------------------------
       NWT REQUIRED            4 OUTER ITERATIONS 
       AND A TOTAL OF         17 INNER ITERATIONS.
    ------------------------------------------------
                                                   Max.-Head-Change                        Max.-Flux-Residual
  Residual-Control   Outer-Iter.   Inner-Iter.     Column Row Layer    Max.-Head-Change    Column Row Layer    Max.-Flux-Residual            L2-New               L2-Old           Solver-Max-Delh
          0                 1           7             6   15     1      -0.1740917446E-01       6   15    1      -0.1649550199E+02      0.3885867623E+02      0.1583110310E-01     -0.1740917446E-01
          0                 2           5             6   15     1       0.1500246053E-02       6   15    1       0.1643466922E+01      0.3878667704E+01      0.3885867623E+02      0.1500246053E-02
          0                 3           3             6   15     1       0.7935782446E-04       6   15    1       0.8841590877E-01      0.2009250536E+00      0.3878667704E+01      0.7935782446E-04

    ------------------------------------------------
       NWT REQUIRED            3 OUTER ITERATIONS 
       AND A TOTAL OF         15 INNER ITERATIONS.
    ------------------------------------------------
                                                   Max.-Head-Change                        Max.-Flux-Residual
  Residual-Control   Outer-Iter.   Inner-Iter.     Column Row Layer    Max.-Head-Change    Column Row Layer    Max.-Flux-Residual            L2-New               L2-Old           Solver-Max-Delh
          0                 1           6             6   15     1      -0.9274476840E-02       6   15    1      -0.8647897397E+01      0.1858228935E+02      0.2009250536E+00     -0.9274476840E-02
          0                 2           5             6   15     1       0.8015496033E-03       6   15    1       0.8612618916E+00      0.1856427058E+01      0.1858228935E+02      0.8015496033E-03
          0                 3           3             6   15     1       0.4276104959E-04       6   15    1       0.4934841424E-01      0.9875420271E-01      0.1856427058E+01      0.4276104959E-04

    ------------------------------------------------
       NWT REQUIRED            3 OUTER ITERATIONS 
       AND A TOTAL OF         14 INNER ITERATIONS.
    ------------------------------------------------
                                                   Max.-Head-Change                        Max.-Flux-Residual
  Residual-Control   Outer-Iter.   Inner-Iter.     Column Row Layer    Max.-Head-Change    Column Row Layer    Max.-Flux-Residual            L2-New               L2-Old           Solver-Max-Delh
          0                 1           6             6   15     1      -0.4349960244E-02       6   15    1      -0.3901791700E+01      0.7564221462E+01      0.9875420271E-01     -0.4349960244E-02
          0                 2           5             6   15     1       0.3742394517E-03       6   15    1       0.3892524602E+00      0.7528785502E+00      0.7564221462E+01      0.3742394517E-03
          0                 3           2             6   15     1       0.2185619449E-04       6   15    1       0.2435075276E-01      0.4414375361E-01      0.7528785502E+00      0.2185619449E-04

    ------------------------------------------------
       NWT REQUIRED            3 OUTER ITERATIONS 
       AND A TOTAL OF         13 INNER ITERATIONS.
    ------------------------------------------------
                                                   Max.-Head-Change                        Max.-Flux-Residual
  Residual-Control   Outer-Iter.   Inner-Iter.     Column Row Layer    Max.-Head-Change    Column Row Layer    Max.-Flux-Residual            L2-New               L2-Old           Solver-Max-Delh
          0                 1           6             1   15     1      -0.2485926886E-02       1   15    1      -0.2182331976E+01      0.4221217244E+01      0.4414375361E-01     -0.2485926886E-02
          0                 2           4             1   15     1       0.2112146160E-03       1   15    1       0.2124574700E+00      0.4194789897E+00      0.4221217244E+01      0.2112146160E-03
          0                 3           2             1   15     1       0.9441531964E-05       1   15    1       0.1025880827E-01      0.2504268119E-01      0.4194789897E+00      0.9441531964E-05

    ------------------------------------------------
       NWT REQUIRED            3 OUTER ITERATIONS 
       AND A TOTAL OF         12 INNER ITERATIONS.
    ------------------------------------------------
                                                   Max.-Head-Change                        Max.-Flux-Residual
  Residual-Control   Outer-Iter.   Inner-Iter.     Column Row Layer    Max.-Head-Change    Column Row Layer    Max.-Flux-Residual            L2-New               L2-Old           Solver-Max-Delh
          0                 1           5             1   12     1      -0.1494847233E-02       1   15    1      -0.1121297230E+01      0.2480935848E+01      0.2504268119E-01     -0.1494847233E-02
          0                 2           4             1   12     2       0.1281888714E-03       1   15    1       0.1061667879E+00      0.2436085693E+00      0.2480935848E+01      0.1281888714E-03
          0                 3           2             1   14     1       0.9536737061E-05       1   14    1       0.8176834788E-02      0.1870995677E-01      0.2436085693E+00      0.9536737061E-05

    ------------------------------------------------
       NWT REQUIRED            3 OUTER ITERATIONS 
       AND A TOTAL OF         11 INNER ITERATIONS.
    ------------------------------------------------
                                                   Max.-Head-Change                        Max.-Flux-Residual
  Residual-Control   Outer-Iter.   Inner-Iter.     Column Row Layer    Max.-Head-Change    Column Row Layer    Max.-Flux-Residual            L2-New               L2-Old           Solver-Max-Delh
          0                 1           5             1   12     1      -0.6727655474E-03       1   12    1      -0.4630275229E+00      0.1058287924E+01      0.1870995677E-01     -0.6727655474E-03
          0                 2           3             1   12     1       0.5713112149E-04       1   15    1       0.5301837239E-01      0.1067877795E+00      0.1058287924E+01      0.5713112149E-04

    ------------------------------------------------
       NWT REQUIRED            2 OUTER ITERATIONS 
       AND A TOTAL OF          8 INNER ITERATIONS.
    ------------------------------------------------
                                                   Max.-Head-Change                        Max.-Flux-Residual
  Residual-Control   Outer-Iter.   Inner-Iter.     Column Row Layer    Max.-Head-Change    Column Row Layer    Max.-Flux-Residual            L2-New               L2-Old           Solver-Max-Delh
          0                 1           4             1   12     1      -0.1354629183E-03       1   12    1      -0.9187737387E-01      0.2234324452E+00      0.1067877795E+00     -0.1354629183E-03
          0                 2           2             1   11     3      -0.1111475795E-04       1   15    1       0.1453448250E-01      0.2432679709E-01      0.2234324452E+00     -0.1111475795E-04

    ------------------------------------------------
       NWT REQUIRED            2 OUTER ITERATIONS 
       AND A TOTAL OF          6 INNER ITERATIONS.
    ------------------------------------------------

 OUTPUT CONTROL FOR STRESS PERIOD      9   TIME STEP     2
    PRINT BUDGET
    SAVE HEAD FOR ALL LAYERS
    SAVE BUDGET
 UBDSV1 SAVING "         STORAGE" ON UNIT7013 AT TIME STEP    2, STRESS PERIOD   9
 UBDSV2 SAVING "   CONSTANT HEAD" ON UNIT7013 AT TIME STEP    2, STRESS PERIOD   9
 UBDSV1 SAVING "FLOW RIGHT FACE " ON UNIT7013 AT TIME STEP    2, STRESS PERIOD   9
 UBDSV1 SAVING "FLOW FRONT FACE " ON UNIT7013 AT TIME STEP    2, STRESS PERIOD   9
 UBDSV1 SAVING "FLOW LOWER FACE " ON UNIT7013 AT TIME STEP    2, STRESS PERIOD   9
 UBDSV4 SAVING "  STREAM LEAKAGE" ON UNIT7013 AT TIME STEP    2, STRESS PERIOD   9



 
 
 
 
 
 
 
 
 UBDSV3 SAVING "FARM  NET  RECH." ON UNIT7013 AT TIME STEP    2, STRESS PERIOD   9
 UBDSV4 SAVING " GHOST-NODE HEAD" ON UNIT7013 AT TIME STEP    2, STRESS PERIOD   9

 HEAD WILL BE SAVED ON UNIT 2213 AT END OF TIME STEP     2, STRESS PERIOD      9
1
  VOLUMETRIC BUDGET FOR ENTIRE MODEL AT END OF TIME STEP    2 IN STRESS PERIOD      9
  ------------------------------------------------------------------------------

     CUMULATIVE VOLUMES      L**3       RATES FOR THIS TIME STEP      L**3/T
     ------------------                 ------------------------

           IN:                                      IN:
           ---                                      ---
             STORAGE =       75577.5547               STORAGE =           4.9167
       CONSTANT HEAD =           0.0000         CONSTANT HEAD =           0.0000
      STREAM LEAKAGE =      327233.3125        STREAM LEAKAGE =         713.9203
          FARM WELLS =           0.0000            FARM WELLS =           0.0000
    FARM  NET  RECH. =      116137.6016      FARM  NET  RECH. =         713.9203
     GHOST-NODE HEAD =     3946064.7500       GHOST-NODE HEAD =        1712.9009

            TOTAL IN =     4465013.0000              TOTAL IN =        3145.6582

          OUT:                                     OUT:
          ----                                     ----
             STORAGE =     3968230.5000               STORAGE =         139.2868
       CONSTANT HEAD =           0.0000         CONSTANT HEAD =           0.0000
      STREAM LEAKAGE =           0.0000        STREAM LEAKAGE =           0.0000
          FARM WELLS =       15382.7432            FARM WELLS =         505.6786
    FARM  NET  RECH. =           0.0000      FARM  NET  RECH. =           0.0000
     GHOST-NODE HEAD =      481398.1562       GHOST-NODE HEAD =        2500.6807

           TOTAL OUT =     4465011.5000             TOTAL OUT =        3145.6460

            IN - OUT =           1.5000              IN - OUT =       1.2207E-02

 PERCENT DISCREPANCY =           0.00     PERCENT DISCREPANCY =           0.00






          TIME SUMMARY AT END OF TIME STEP     2 IN STRESS PERIOD      9
                    SECONDS     MINUTES      HOURS       DAYS        YEARS
                    -----------------------------------------------------------
   TIME STEP LENGTH 1.31414E+06  21902.      365.04      15.210     4.16427E-02
 STRESS PERIOD TIME 2.62829E+06  43805.      730.08      30.420     8.32854E-02
         TOTAL TIME 2.36546E+07 3.94243E+05  6570.7      273.78     0.74957    
1
1
  FLUX ACROSS PARENT-CHILD INTERFACE AT TIME STEP  2 IN STRESS PERIOD    9
  ------------------------------------------------------------------------
 G-N FLUX        PARENT        CHILD         DIFFERENCE      % DIFFERENCE
  RATE IN:      1.7138E+03    1.7129E+03     8.5229E-01        0.0497
 RATE OUT:      2.5013E+03    2.5007E+03     6.2891E-01        0.0251
1
                            STRESS PERIOD NO.     10, LENGTH =   30.42000    
                            -----------------------------------------------

                              NUMBER OF TIME STEPS =     2

                               MULTIPLIER FOR DELT =     1.000

                            INITIAL TIME STEP SIZE =   15.21000    

 REUSING STREAM SEGMENT DATA FROM LAST STRESS PERIOD

 Parameter:  WELLS1
 WELL NO. LAYER    ROW    COL  F-WELL ID    FARM ID         QMAX         QMAXRESET       LGRGRID         
 --------------------------------------------------------------------------------------------------------
       1      1      2      2          5          2      2.0000E+03              0              0
       2      1      5      5          6          2      1.0000E+03              0              0

 NUMBER OF ACTIVE FARM WELLS:        2

 FARM-ID  NUMBER OF WELLS PER FARM  TOTAL MAX.CAPACITY PER FARM
       1                         0                       0.0000
       2                         2                    3000.0000
       3                         0                       0.0000
       4                         0                       0.0000
       5                         0                       0.0000
       6                         0                       0.0000
       7                         0                       0.0000
       8                         0                       0.0000

Transpiratory and Evaporative Fractions of Crop Consumptive Use
    % Transpiration % Evap. for Precip. % Evap. for Irrig.
    3          0.894          0.106          0.106
    5          0.927          0.073          0.000

FRACTIONS OF IN-EFFICIENT LOSSES TO SW-RUNOFF FROM 
     PRECIPITATION:  IRRIGATION:
    3          0.600          0.500
    5          0.500          0.000
 
 SOLVING FOR HEAD 
                                                   Max.-Head-Change                        Max.-Flux-Residual
  Residual-Control   Outer-Iter.   Inner-Iter.     Column Row Layer    Max.-Head-Change    Column Row Layer    Max.-Flux-Residual            L2-New               L2-Old           Solver-Max-Delh
          0                 1          10             4   14     1       0.8969153956E+00       6   14    1       0.6146850598E+03      0.1271253953E+04      0.2432679709E-01      0.8969153956E+00
          0                 2           9             5   14     1      -0.1888085905E+00       5   14    1      -0.2505161608E+03      0.5052298062E+03      0.1271253953E+04     -0.1888085905E+00
          0                 3           6             5   14     1      -0.1086397752E-01       5   14    1      -0.1475099547E+02      0.2897340089E+02      0.5052298062E+03     -0.1086397752E-01
          0                 4           5             1   14     1      -0.1140319569E-02       1   14    1      -0.1903023638E+01      0.2481883668E+01      0.2897340089E+02     -0.1140319569E-02
          0                 5           3             1   14     1      -0.5943167199E-04       1   14    1      -0.9957086621E-01      0.1372500382E+00      0.2481883668E+01     -0.5943167199E-04

    ------------------------------------------------
       NWT REQUIRED            5 OUTER ITERATIONS 
       AND A TOTAL OF         33 INNER ITERATIONS.
    ------------------------------------------------
                                                   Max.-Head-Change                        Max.-Flux-Residual
  Residual-Control   Outer-Iter.   Inner-Iter.     Column Row Layer    Max.-Head-Change    Column Row Layer    Max.-Flux-Residual            L2-New               L2-Old           Solver-Max-Delh
          0                 1           8             5   14     1      -0.3810308049E+00       5   14    1      -0.4314125647E+03      0.6485979347E+03      0.1372500382E+00     -0.3810308049E+00
          0                 2           6             6   14     1       0.1901363733E-01       4   14    1      -0.5280364095E+02      0.7988032736E+02      0.6485979347E+03      0.1901363733E-01
          0                 3           4             6   14     1       0.7961128449E-03       4   14    1       0.2161592059E+01      0.3621570594E+01      0.7988032736E+02      0.7961128449E-03
          0                 4           2             6   14     1       0.3934862498E-04       6   14    1       0.9560417081E-01      0.2577582849E+00      0.3621570594E+01      0.3934862498E-04

    ------------------------------------------------
       NWT REQUIRED            4 OUTER ITERATIONS 
       AND A TOTAL OF         20 INNER ITERATIONS.
    ------------------------------------------------
                                                   Max.-Head-Change                        Max.-Flux-Residual
  Residual-Control   Outer-Iter.   Inner-Iter.     Column Row Layer    Max.-Head-Change    Column Row Layer    Max.-Flux-Residual            L2-New               L2-Old           Solver-Max-Delh
          0                 1           7             6   14     1      -0.3969980741E-01       6   13    1      -0.3835702114E+02      0.9180645794E+02      0.2577582849E+00     -0.3969980741E-01
          0                 2           5             6   14     1       0.3876002475E-02       6   13    1       0.3839346637E+01      0.9823538230E+01      0.9180645794E+02      0.3876002475E-02
          0                 3           4             6   14     1       0.1968460354E-03       4   14    1       0.3344747551E+00      0.6575919975E+00      0.9823538230E+01      0.1968460354E-03
          0                 4           2             6   13     1       0.1154367920E-04       4   14    1       0.1625441667E-01      0.4040786048E-01      0.6575919975E+00      0.1154367920E-04

    ------------------------------------------------
       NWT REQUIRED            4 OUTER ITERATIONS 
       AND A TOTAL OF         18 INNER ITERATIONS.
    ------------------------------------------------
                                                   Max.-Head-Change                        Max.-Flux-Residual
  Residual-Control   Outer-Iter.   Inner-Iter.     Column Row Layer    Max.-Head-Change    Column Row Layer    Max.-Flux-Residual            L2-New               L2-Old           Solver-Max-Delh
          0                 1           7             1   11     1       0.3724988977E-01       1   10    1       0.2969497463E+02      0.7124218001E+02      0.4040786048E-01      0.3724988977E-01
          0                 2           6             1   11     1      -0.3077909304E-02       4   14    1       0.3192413210E+01      0.7804369854E+01      0.7124218001E+02     -0.3077909304E-02
          0                 3           4             1   11     1      -0.1510477927E-03       4   13    1      -0.3690280353E+00      0.6347421141E+00      0.7804369854E+01     -0.1510477927E-03
          0                 4           2             1   11     1      -0.1016113884E-04       4   13    1      -0.1848464436E-01      0.3637640871E-01      0.6347421141E+00     -0.1016113884E-04

    ------------------------------------------------
       NWT REQUIRED            4 OUTER ITERATIONS 
       AND A TOTAL OF         19 INNER ITERATIONS.
    ------------------------------------------------
                                                   Max.-Head-Change                        Max.-Flux-Residual
  Residual-Control   Outer-Iter.   Inner-Iter.     Column Row Layer    Max.-Head-Change    Column Row Layer    Max.-Flux-Residual            L2-New               L2-Old           Solver-Max-Delh
          0                 1           7             1   11     1       0.1863118284E-01       1   11    1       0.1482324894E+02      0.3447595270E+02      0.3637640871E-01      0.1863118284E-01
          0                 2           5             1   11     1      -0.1554023980E-02       1   12    1      -0.1484932500E+01      0.3657421859E+01      0.3447595270E+02     -0.1554023980E-02
          0                 3           4             1   11     1      -0.7575222018E-04       4   14    1       0.8752035233E-01      0.1953152953E+00      0.3657421859E+01     -0.7575222018E-04

    ------------------------------------------------
       NWT REQUIRED            3 OUTER ITERATIONS 
       AND A TOTAL OF         16 INNER ITERATIONS.
    ------------------------------------------------
                                                   Max.-Head-Change                        Max.-Flux-Residual
  Residual-Control   Outer-Iter.   Inner-Iter.     Column Row Layer    Max.-Head-Change    Column Row Layer    Max.-Flux-Residual            L2-New               L2-Old           Solver-Max-Delh
          0                 1           6             6   15     1      -0.5347642611E-02       6   15    1      -0.5556521805E+01      0.1046149317E+02      0.1953152953E+00     -0.5347642611E-02
          0                 2           5             6   15     1       0.4507271538E-03       6   15    1       0.5555283052E+00      0.1048552886E+01      0.1046149317E+02      0.4507271538E-03
          0                 3           3             6   15     1       0.2295679733E-04       6   15    1       0.2719582932E-01      0.6014437387E-01      0.1048552886E+01      0.2295679733E-04

    ------------------------------------------------
       NWT REQUIRED            3 OUTER ITERATIONS 
       AND A TOTAL OF         14 INNER ITERATIONS.
    ------------------------------------------------
                                                   Max.-Head-Change                        Max.-Flux-Residual
  Residual-Control   Outer-Iter.   Inner-Iter.     Column Row Layer    Max.-Head-Change    Column Row Layer    Max.-Flux-Residual            L2-New               L2-Old           Solver-Max-Delh
          0                 1           5             6   15     1      -0.2408486125E-02       6   15    1      -0.2353531842E+01      0.4455858801E+01      0.6014437387E-01     -0.2408486125E-02
          0                 2           4             4   14     1      -0.1729737091E-03       4   14    1      -0.5226824046E+00      0.6889929479E+00      0.4455858801E+01     -0.1729737091E-03
          0                 3           2             4   14     1       0.1018065968E-04       4   14    1       0.3470052738E-01      0.5174440329E-01      0.6889929479E+00      0.1018065968E-04

    ------------------------------------------------
       NWT REQUIRED            3 OUTER ITERATIONS 
       AND A TOTAL OF         11 INNER ITERATIONS.
    ------------------------------------------------
                                                   Max.-Head-Change                        Max.-Flux-Residual
  Residual-Control   Outer-Iter.   Inner-Iter.     Column Row Layer    Max.-Head-Change    Column Row Layer    Max.-Flux-Residual            L2-New               L2-Old           Solver-Max-Delh
          0                 1           6             1   11     2      -0.2156334772E-02       1   11    1      -0.1537453780E+01      0.3858878838E+01      0.5174440329E-01     -0.2156334772E-02
          0                 2           4             4   14     1      -0.1798654300E-03       4   14    1      -0.4477093613E+00      0.5905300509E+00      0.3858878838E+01     -0.1798654300E-03
          0                 3           2             4   14     1       0.1212489490E-04       4   14    1       0.3626770194E-01      0.5232329725E-01      0.5905300509E+00      0.1212489490E-04

    ------------------------------------------------
       NWT REQUIRED            3 OUTER ITERATIONS 
       AND A TOTAL OF         12 INNER ITERATIONS.
    ------------------------------------------------
                                                   Max.-Head-Change                        Max.-Flux-Residual
  Residual-Control   Outer-Iter.   Inner-Iter.     Column Row Layer    Max.-Head-Change    Column Row Layer    Max.-Flux-Residual            L2-New               L2-Old           Solver-Max-Delh
          0                 1           5             1   12     1      -0.1238960460E-02       1   12    1      -0.9026288042E+00      0.2150503353E+01      0.5232329725E-01     -0.1238960460E-02
          0                 2           4             4   14     1      -0.1052564552E-03       4   14    1      -0.2451267240E+00      0.3222555071E+00      0.2150503353E+01     -0.1052564552E-03
          0                 3           2             1   15     1       0.9021742623E-05       4   14    1       0.1926215913E-01      0.3379150660E-01      0.3222555071E+00      0.9021742623E-05

    ------------------------------------------------
       NWT REQUIRED            3 OUTER ITERATIONS 
       AND A TOTAL OF         11 INNER ITERATIONS.
    ------------------------------------------------
                                                   Max.-Head-Change                        Max.-Flux-Residual
  Residual-Control   Outer-Iter.   Inner-Iter.     Column Row Layer    Max.-Head-Change    Column Row Layer    Max.-Flux-Residual            L2-New               L2-Old           Solver-Max-Delh
          0                 1           5             1   12     1      -0.3935857769E-03       1   15    1      -0.3269709193E+00      0.7476385250E+00      0.3379150660E-01     -0.3935857769E-03
          0                 2           3             4   14     1      -0.4084416508E-04       4   14    1      -0.9455982677E-01      0.1195869807E+00      0.7476385250E+00     -0.4084416508E-04

    ------------------------------------------------
       NWT REQUIRED            2 OUTER ITERATIONS 
       AND A TOTAL OF          8 INNER ITERATIONS.
    ------------------------------------------------
                                                   Max.-Head-Change                        Max.-Flux-Residual
  Residual-Control   Outer-Iter.   Inner-Iter.     Column Row Layer    Max.-Head-Change    Column Row Layer    Max.-Flux-Residual            L2-New               L2-Old           Solver-Max-Delh
          0                 1           4             1   11     3       0.1583333487E-03       1   15    1      -0.7611693605E-01      0.1998324601E+00      0.1195869807E+00      0.1583333487E-03
          0                 2           2             1   11     3      -0.1380685211E-04       4   14    1      -0.1988215989E-01      0.3503896679E-01      0.1998324601E+00     -0.1380685211E-04

    ------------------------------------------------
       NWT REQUIRED            2 OUTER ITERATIONS 
       AND A TOTAL OF          6 INNER ITERATIONS.
    ------------------------------------------------

 OUTPUT CONTROL FOR STRESS PERIOD     10   TIME STEP     1
    SAVE BUDGET
 UBDSV1 SAVING "         STORAGE" ON UNIT7013 AT TIME STEP    1, STRESS PERIOD  10
 UBDSV2 SAVING "   CONSTANT HEAD" ON UNIT7013 AT TIME STEP    1, STRESS PERIOD  10
 UBDSV1 SAVING "FLOW RIGHT FACE " ON UNIT7013 AT TIME STEP    1, STRESS PERIOD  10
 UBDSV1 SAVING "FLOW FRONT FACE " ON UNIT7013 AT TIME STEP    1, STRESS PERIOD  10
 UBDSV1 SAVING "FLOW LOWER FACE " ON UNIT7013 AT TIME STEP    1, STRESS PERIOD  10
 UBDSV4 SAVING "  STREAM LEAKAGE" ON UNIT7013 AT TIME STEP    1, STRESS PERIOD  10



 
 
 
 
 
 
 
 
 UBDSV3 SAVING "FARM  NET  RECH." ON UNIT7013 AT TIME STEP    1, STRESS PERIOD  10
 UBDSV4 SAVING " GHOST-NODE HEAD" ON UNIT7013 AT TIME STEP    1, STRESS PERIOD  10
1
  FLUX ACROSS PARENT-CHILD INTERFACE AT TIME STEP  1 IN STRESS PERIOD   10
  ------------------------------------------------------------------------
 G-N FLUX        PARENT        CHILD         DIFFERENCE      % DIFFERENCE
  RATE IN:      1.4552E+03    1.4549E+03     3.1299E-01        0.0215
 RATE OUT:      2.7487E+03    2.7482E+03     5.0879E-01        0.0185
 
 SOLVING FOR HEAD 
                                                   Max.-Head-Change                        Max.-Flux-Residual
  Residual-Control   Outer-Iter.   Inner-Iter.     Column Row Layer    Max.-Head-Change    Column Row Layer    Max.-Flux-Residual            L2-New               L2-Old           Solver-Max-Delh
          0                 1           9             5   14     1       0.7469692818E+00       6   14    1       0.6019152546E+03      0.9841900668E+03      0.3503896679E-01      0.7469692818E+00
          0                 2           9             5   14     1      -0.2232109696E+00       5   14    1      -0.3221323616E+03      0.5998530785E+03      0.9841900668E+03     -0.2232109696E+00
          0                 3           6             5   14     1      -0.1260442165E-01       5   14    1      -0.1846022014E+02      0.3371869971E+02      0.5998530785E+03     -0.1260442165E-01
          0                 4           5             5   14     1      -0.7035989913E-03       6   14    1      -0.1049782687E+01      0.1866143588E+01      0.3371869971E+02     -0.7035989913E-03
          0                 5           3             5   14     1      -0.3905312269E-04       6   14    1      -0.6117609038E-01      0.1052682376E+00      0.1866143588E+01     -0.3905312269E-04

    ------------------------------------------------
       NWT REQUIRED            5 OUTER ITERATIONS 
       AND A TOTAL OF         32 INNER ITERATIONS.
    ------------------------------------------------
                                                   Max.-Head-Change                        Max.-Flux-Residual
  Residual-Control   Outer-Iter.   Inner-Iter.     Column Row Layer    Max.-Head-Change    Column Row Layer    Max.-Flux-Residual            L2-New               L2-Old           Solver-Max-Delh
          0                 1           9             5   14     1      -0.3154962096E+00       5   14    1      -0.3788459485E+03      0.5450345723E+03      0.1052682376E+00     -0.3154962096E+00
          0                 2           6             4   14     1      -0.2243557578E-01       4   14    1      -0.5512785386E+02      0.8153017424E+02      0.5450345723E+03     -0.2243557578E-01
          0                 3           5             4   14     1      -0.9295043523E-03       2   14    1       0.2869417202E+01      0.4329245912E+01      0.8153017424E+02     -0.9295043523E-03
          0                 4           3             5   13     1      -0.1397362299E-03       5   13    1      -0.4326661017E+00      0.8792013418E+00      0.4329245912E+01     -0.1397362299E-03
          0                 5           2             5   15     1      -0.2742215518E-04       5   13    1      -0.6708951580E-01      0.1348773473E+00      0.8792013418E+00     -0.2742215518E-04

    ------------------------------------------------
       NWT REQUIRED            5 OUTER ITERATIONS 
       AND A TOTAL OF         25 INNER ITERATIONS.
    ------------------------------------------------
                                                   Max.-Head-Change                        Max.-Flux-Residual
  Residual-Control   Outer-Iter.   Inner-Iter.     Column Row Layer    Max.-Head-Change    Column Row Layer    Max.-Flux-Residual            L2-New               L2-Old           Solver-Max-Delh
          0                 1           7             6   14     1      -0.4799587772E-01       6   13    1      -0.3996968292E+02      0.7711437217E+02      0.1348773473E+00     -0.4799587772E-01
          0                 2           5             6   14     1       0.3765629802E-02       6   14    1       0.4001514750E+01      0.8349651826E+01      0.7711437217E+02      0.3765629802E-02
          0                 3           3             6   14     1       0.1825574701E-03       6   15    1       0.2016074617E+00      0.4061263621E+00      0.8349651826E+01      0.1825574701E-03
          0                 4           2             6   14     1       0.9530422557E-05       6   14    1       0.1262290438E-01      0.2632258349E-01      0.4061263621E+00      0.9530422557E-05

    ------------------------------------------------
       NWT REQUIRED            4 OUTER ITERATIONS 
       AND A TOTAL OF         17 INNER ITERATIONS.
    ------------------------------------------------
                                                   Max.-Head-Change                        Max.-Flux-Residual
  Residual-Control   Outer-Iter.   Inner-Iter.     Column Row Layer    Max.-Head-Change    Column Row Layer    Max.-Flux-Residual            L2-New               L2-Old           Solver-Max-Delh
          0                 1           7             1   11     1       0.2907884169E-01       6   15    1      -0.2538820854E+02      0.6241347494E+02      0.2632258349E-01      0.2907884169E-01
          0                 2           5             1   11     1      -0.2500517725E-02       6   15    1       0.2546494570E+01      0.6251487329E+01      0.6241347494E+02     -0.2500517725E-02
          0                 3           4             1   11     1      -0.1230907603E-03       6   15    1       0.1272678304E+00      0.3078577613E+00      0.6251487329E+01     -0.1230907603E-03
          0                 4           2             1   10     1      -0.8274547113E-05       1   10    1      -0.1036539301E-01      0.2198040902E-01      0.3078577613E+00     -0.8274547113E-05

    ------------------------------------------------
       NWT REQUIRED            4 OUTER ITERATIONS 
       AND A TOTAL OF         18 INNER ITERATIONS.
    ------------------------------------------------
                                                   Max.-Head-Change                        Max.-Flux-Residual
  Residual-Control   Outer-Iter.   Inner-Iter.     Column Row Layer    Max.-Head-Change    Column Row Layer    Max.-Flux-Residual            L2-New               L2-Old           Solver-Max-Delh
          0                 1           7             1   11     1       0.1816158855E-01       1   10    1       0.1511633559E+02      0.3515629504E+02      0.2198040902E-01      0.1816158855E-01
          0                 2           5             1   11     1      -0.1561697678E-02       1   12    1      -0.1518610547E+01      0.3516471545E+01      0.3515629504E+02     -0.1561697678E-02
          0                 3           4             1   11     1      -0.8097990201E-04       1   11    1      -0.8134999394E-01      0.1791357554E+00      0.3516471545E+01     -0.8097990201E-04

    ------------------------------------------------
       NWT REQUIRED            3 OUTER ITERATIONS 
       AND A TOTAL OF         16 INNER ITERATIONS.
    ------------------------------------------------
                                                   Max.-Head-Change                        Max.-Flux-Residual
  Residual-Control   Outer-Iter.   Inner-Iter.     Column Row Layer    Max.-Head-Change    Column Row Layer    Max.-Flux-Residual            L2-New               L2-Old           Solver-Max-Delh
          0                 1           6             6   15     1      -0.6612506466E-02       6   15    1      -0.6648856793E+01      0.1330795913E+02      0.1791357554E+00     -0.6612506466E-02
          0                 2           5             6   15     1       0.5285526544E-03       6   15    1       0.6640642011E+00      0.1404905188E+01      0.1330795913E+02      0.5285526544E-03
          0                 3           3             6   15     1       0.3015101924E-04       6   15    1       0.4042054786E-01      0.8354390493E-01      0.1404905188E+01      0.3015101924E-04

    ------------------------------------------------
       NWT REQUIRED            3 OUTER ITERATIONS 
       AND A TOTAL OF         14 INNER ITERATIONS.
    ------------------------------------------------
                                                   Max.-Head-Change                        Max.-Flux-Residual
  Residual-Control   Outer-Iter.   Inner-Iter.     Column Row Layer    Max.-Head-Change    Column Row Layer    Max.-Flux-Residual            L2-New               L2-Old           Solver-Max-Delh
          0                 1           6             6   15     1      -0.2880166359E-02       6   15    1      -0.2771095625E+01      0.4608741629E+01      0.8354390493E-01     -0.2880166359E-02
          0                 2           4             4   14     1      -0.1937541765E-03       4   14    1      -0.5977895561E+00      0.7510274477E+00      0.4608741629E+01     -0.1937541765E-03
          0                 3           2             4   14     1       0.1114037004E-04       4   14    1       0.3829169023E-01      0.5907555634E-01      0.7510274477E+00      0.1114037004E-04

    ------------------------------------------------
       NWT REQUIRED            3 OUTER ITERATIONS 
       AND A TOTAL OF         12 INNER ITERATIONS.
    ------------------------------------------------
                                                   Max.-Head-Change                        Max.-Flux-Residual
  Residual-Control   Outer-Iter.   Inner-Iter.     Column Row Layer    Max.-Head-Change    Column Row Layer    Max.-Flux-Residual            L2-New               L2-Old           Solver-Max-Delh
          0                 1           6             1   12     2      -0.2006896087E-02       1   15    1      -0.1341464984E+01      0.3445467126E+01      0.5907555634E-01     -0.2006896087E-02
          0                 2           4             4   14     1      -0.1753964234E-03       4   14    1      -0.4536597406E+00      0.5723931881E+00      0.3445467126E+01     -0.1753964234E-03
          0                 3           2             4   14     1       0.1047831046E-04       4   14    1       0.3862228518E-01      0.5368447002E-01      0.5723931881E+00      0.1047831046E-04

    ------------------------------------------------
       NWT REQUIRED            3 OUTER ITERATIONS 
       AND A TOTAL OF         12 INNER ITERATIONS.
    ------------------------------------------------
                                                   Max.-Head-Change                        Max.-Flux-Residual
  Residual-Control   Outer-Iter.   Inner-Iter.     Column Row Layer    Max.-Head-Change    Column Row Layer    Max.-Flux-Residual            L2-New               L2-Old           Solver-Max-Delh
          0                 1           5             1   12     1      -0.1220702507E-02       1   10    1      -0.8775979563E+00      0.2094039157E+01      0.5368447002E-01     -0.1220702507E-02
          0                 2           4             4   14     1      -0.9968267779E-04       4   14    1      -0.2389299230E+00      0.3202180283E+00      0.2094039157E+01     -0.9968267779E-04

    ------------------------------------------------
       NWT REQUIRED            2 OUTER ITERATIONS 
       AND A TOTAL OF          9 INNER ITERATIONS.
    ------------------------------------------------
                                                   Max.-Head-Change                        Max.-Flux-Residual
  Residual-Control   Outer-Iter.   Inner-Iter.     Column Row Layer    Max.-Head-Change    Column Row Layer    Max.-Flux-Residual            L2-New               L2-Old           Solver-Max-Delh
          0                 1           5             1   12     1      -0.4734559744E-03       1   12    1      -0.3398715658E+00      0.8225822020E+00      0.3202180283E+00     -0.4734559744E-03
          0                 2           3             4   14     1      -0.3977885299E-04       4   14    1      -0.9337281802E-01      0.1288758769E+00      0.8225822020E+00     -0.3977885299E-04

    ------------------------------------------------
       NWT REQUIRED            2 OUTER ITERATIONS 
       AND A TOTAL OF          8 INNER ITERATIONS.
    ------------------------------------------------
                                                   Max.-Head-Change                        Max.-Flux-Residual
  Residual-Control   Outer-Iter.   Inner-Iter.     Column Row Layer    Max.-Head-Change    Column Row Layer    Max.-Flux-Residual            L2-New               L2-Old           Solver-Max-Delh
          0                 1           4             1   11     3       0.1309756505E-03       6   14    1       0.7473657944E-01      0.2023594799E+00      0.1288758769E+00      0.1309756505E-03
          0                 2           2             1   11     3      -0.1163878219E-04       4   14    1      -0.1370363234E-01      0.2998228406E-01      0.2023594799E+00     -0.1163878219E-04

    ------------------------------------------------
       NWT REQUIRED            2 OUTER ITERATIONS 
       AND A TOTAL OF          6 INNER ITERATIONS.
    ------------------------------------------------

 OUTPUT CONTROL FOR STRESS PERIOD     10   TIME STEP     2
    SAVE HEAD FOR ALL LAYERS
    SAVE BUDGET
 UBDSV1 SAVING "         STORAGE" ON UNIT7013 AT TIME STEP    2, STRESS PERIOD  10
 UBDSV2 SAVING "   CONSTANT HEAD" ON UNIT7013 AT TIME STEP    2, STRESS PERIOD  10
 UBDSV1 SAVING "FLOW RIGHT FACE " ON UNIT7013 AT TIME STEP    2, STRESS PERIOD  10
 UBDSV1 SAVING "FLOW FRONT FACE " ON UNIT7013 AT TIME STEP    2, STRESS PERIOD  10
 UBDSV1 SAVING "FLOW LOWER FACE " ON UNIT7013 AT TIME STEP    2, STRESS PERIOD  10
 UBDSV4 SAVING "  STREAM LEAKAGE" ON UNIT7013 AT TIME STEP    2, STRESS PERIOD  10



 
 
 
 
 
 
 
 
 UBDSV3 SAVING "FARM  NET  RECH." ON UNIT7013 AT TIME STEP    2, STRESS PERIOD  10
 UBDSV4 SAVING " GHOST-NODE HEAD" ON UNIT7013 AT TIME STEP    2, STRESS PERIOD  10

 HEAD WILL BE SAVED ON UNIT 2213 AT END OF TIME STEP     2, STRESS PERIOD     10
1
  VOLUMETRIC BUDGET FOR ENTIRE MODEL AT END OF TIME STEP    2 IN STRESS PERIOD     10
  ------------------------------------------------------------------------------

     CUMULATIVE VOLUMES      L**3       RATES FOR THIS TIME STEP      L**3/T
     ------------------                 ------------------------

           IN:                                      IN:
           ---                                      ---
             STORAGE =       75627.4219               STORAGE =           0.0000
       CONSTANT HEAD =           0.0000         CONSTANT HEAD =           0.0000
      STREAM LEAKAGE =      371440.5000        STREAM LEAKAGE =        1453.2269
          FARM WELLS =           0.0000            FARM WELLS =           0.0000
    FARM  NET  RECH. =      160344.7656      FARM  NET  RECH. =        1453.2269
     GHOST-NODE HEAD =     3989815.7500       GHOST-NODE HEAD =        1421.5494

            TOTAL IN =     4597228.5000              TOTAL IN =        4328.0034

          OUT:                                     OUT:
          ----                                     ----
             STORAGE =     3983773.0000               STORAGE =         393.3049
       CONSTANT HEAD =           0.0000         CONSTANT HEAD =           0.0000
      STREAM LEAKAGE =           0.0000        STREAM LEAKAGE =           0.0000
          FARM WELLS =       45434.2578            FARM WELLS =         987.8868
    FARM  NET  RECH. =           0.0000      FARM  NET  RECH. =           0.0000
     GHOST-NODE HEAD =      568018.6875       GHOST-NODE HEAD =        2946.7820

           TOTAL OUT =     4597226.0000             TOTAL OUT =        4327.9736

            IN - OUT =           2.5000              IN - OUT =       2.9785E-02

 PERCENT DISCREPANCY =           0.00     PERCENT DISCREPANCY =           0.00






          TIME SUMMARY AT END OF TIME STEP     2 IN STRESS PERIOD     10
                    SECONDS     MINUTES      HOURS       DAYS        YEARS
                    -----------------------------------------------------------
   TIME STEP LENGTH 1.31414E+06  21902.      365.04      15.210     4.16427E-02
 STRESS PERIOD TIME 2.62829E+06  43805.      730.08      30.420     8.32854E-02
         TOTAL TIME 2.62829E+07 4.38048E+05  7300.8      304.20     0.83285    
1
1
  FLUX ACROSS PARENT-CHILD INTERFACE AT TIME STEP  2 IN STRESS PERIOD   10
  ------------------------------------------------------------------------
 G-N FLUX        PARENT        CHILD         DIFFERENCE      % DIFFERENCE
  RATE IN:      1.4220E+03    1.4215E+03     4.8877E-01        0.0344
 RATE OUT:      2.9473E+03    2.9468E+03     5.1782E-01        0.0176
1
                            STRESS PERIOD NO.     11, LENGTH =   30.42000    
                            -----------------------------------------------

                              NUMBER OF TIME STEPS =     2

                               MULTIPLIER FOR DELT =     1.000

                            INITIAL TIME STEP SIZE =   15.21000    

 REUSING STREAM SEGMENT DATA FROM LAST STRESS PERIOD

 Parameter:  WELLS1
 WELL NO. LAYER    ROW    COL  F-WELL ID    FARM ID         QMAX         QMAXRESET       LGRGRID         
 --------------------------------------------------------------------------------------------------------
       1      1      2      2          5          2      2.0000E+03              0              0
       2      1      5      5          6          2      1.0000E+03              0              0

 NUMBER OF ACTIVE FARM WELLS:        2

 FARM-ID  NUMBER OF WELLS PER FARM  TOTAL MAX.CAPACITY PER FARM
       1                         0                       0.0000
       2                         2                    3000.0000
       3                         0                       0.0000
       4                         0                       0.0000
       5                         0                       0.0000
       6                         0                       0.0000
       7                         0                       0.0000
       8                         0                       0.0000

Transpiratory and Evaporative Fractions of Crop Consumptive Use
    % Transpiration % Evap. for Precip. % Evap. for Irrig.
    3          0.954          0.046          0.046
    5          0.927          0.073          0.000

FRACTIONS OF IN-EFFICIENT LOSSES TO SW-RUNOFF FROM 
     PRECIPITATION:  IRRIGATION:
    3          0.600          0.500
    5          0.500          0.000
 
 SOLVING FOR HEAD 
                                                   Max.-Head-Change                        Max.-Flux-Residual
  Residual-Control   Outer-Iter.   Inner-Iter.     Column Row Layer    Max.-Head-Change    Column Row Layer    Max.-Flux-Residual            L2-New               L2-Old           Solver-Max-Delh
          0                 1           9             2    2     1       0.3934314499E+00       5    5    1       0.4982863286E+03      0.8700682321E+03      0.2998228406E-01      0.3934314499E+00
          0                 2           7             2    2     1      -0.3453358746E-01       5    5    1      -0.5162933155E+02      0.8786149243E+02      0.8700682321E+03     -0.3453358746E-01
          0                 3           5             2    2     1      -0.1728481829E-02       5    5    1      -0.2595860161E+01      0.4402477540E+01      0.8786149243E+02     -0.1728481829E-02
          0                 4           4             2    2     1      -0.8585885466E-04       5    5    1      -0.1296964379E+00      0.2204534774E+00      0.4402477540E+01     -0.8585885466E-04

    ------------------------------------------------
       NWT REQUIRED            4 OUTER ITERATIONS 
       AND A TOTAL OF         25 INNER ITERATIONS.
    ------------------------------------------------
                                                   Max.-Head-Change                        Max.-Flux-Residual
  Residual-Control   Outer-Iter.   Inner-Iter.     Column Row Layer    Max.-Head-Change    Column Row Layer    Max.-Flux-Residual            L2-New               L2-Old           Solver-Max-Delh
          0                 1           8             1   14     1      -0.3332388361E+00       1   14    1      -0.4432613872E+03      0.5262079754E+03      0.2204534774E+00     -0.3332388361E+00
          0                 2           7             1   14     1       0.2811720879E-01       1   14    1       0.4274327390E+02      0.5090824047E+02      0.5262079754E+03      0.2811720879E-01
          0                 3           5             1   14     1       0.1422839170E-02       1   14    1       0.2155087530E+01      0.2559011899E+01      0.5090824047E+02      0.1422839170E-02
          0                 4           3             1   14     1       0.7257253677E-04       1   14    1       0.1095801222E+00      0.1294015557E+00      0.2559011899E+01      0.7257253677E-04

    ------------------------------------------------
       NWT REQUIRED            4 OUTER ITERATIONS 
       AND A TOTAL OF         23 INNER ITERATIONS.
    ------------------------------------------------
                                                   Max.-Head-Change                        Max.-Flux-Residual
  Residual-Control   Outer-Iter.   Inner-Iter.     Column Row Layer    Max.-Head-Change    Column Row Layer    Max.-Flux-Residual            L2-New               L2-Old           Solver-Max-Delh
          0                 1           8             1   11     1       0.3528500055E-01       1   10    1       0.3268649565E+02      0.7706197383E+02      0.1294015557E+00      0.3528500055E-01
          0                 2           6             1   11     1      -0.3032816788E-02       1   11    1      -0.3253649891E+01      0.7688803395E+01      0.7706197383E+02     -0.3032816788E-02
          0                 3           4             1   11     1      -0.1512585945E-03       1   10    1      -0.1635946742E+00      0.3825902347E+00      0.7688803395E+01     -0.1512585945E-03
          0                 4           2             6   15     1       0.9317271898E-05       6   15    1       0.1347128957E-01      0.2796622311E-01      0.3825902347E+00      0.9317271898E-05

    ------------------------------------------------
       NWT REQUIRED            4 OUTER ITERATIONS 
       AND A TOTAL OF         20 INNER ITERATIONS.
    ------------------------------------------------
                                                   Max.-Head-Change                        Max.-Flux-Residual
  Residual-Control   Outer-Iter.   Inner-Iter.     Column Row Layer    Max.-Head-Change    Column Row Layer    Max.-Flux-Residual            L2-New               L2-Old           Solver-Max-Delh
          0                 1           7             1   15     1      -0.2381847461E-01       1   15    1      -0.2420375002E+02      0.5042480090E+02      0.2796622311E-01     -0.2381847461E-01
          0                 2           6             1   15     1       0.2043673173E-02       1   15    1       0.2407666756E+01      0.5016146067E+01      0.5042480090E+02      0.2043673173E-02
          0                 3           4             1   15     1       0.9803596148E-04       1   15    1       0.1121334396E+00      0.2496939625E+00      0.5016146067E+01      0.9803596148E-04

    ------------------------------------------------
       NWT REQUIRED            3 OUTER ITERATIONS 
       AND A TOTAL OF         17 INNER ITERATIONS.
    ------------------------------------------------
                                                   Max.-Head-Change                        Max.-Flux-Residual
  Residual-Control   Outer-Iter.   Inner-Iter.     Column Row Layer    Max.-Head-Change    Column Row Layer    Max.-Flux-Residual            L2-New               L2-Old           Solver-Max-Delh
          0                 1           7             1   15     1      -0.1937386412E-01       1   15    1      -0.1872521957E+02      0.3186765966E+02      0.2496939625E+00     -0.1937386412E-01
          0                 2           6             1   15     1       0.1661047371E-02       1   15    1       0.1863296278E+01      0.3170392005E+01      0.3186765966E+02      0.1661047371E-02
          0                 3           3             1   15     1       0.8171497421E-04       1   15    1       0.8762459329E-01      0.1582984481E+00      0.3170392005E+01      0.8171497421E-04

    ------------------------------------------------
       NWT REQUIRED            3 OUTER ITERATIONS 
       AND A TOTAL OF         16 INNER ITERATIONS.
    ------------------------------------------------
                                                   Max.-Head-Change                        Max.-Flux-Residual
  Residual-Control   Outer-Iter.   Inner-Iter.     Column Row Layer    Max.-Head-Change    Column Row Layer    Max.-Flux-Residual            L2-New               L2-Old           Solver-Max-Delh
          0                 1           7             1   15     1      -0.1296702644E-01       1   15    1      -0.1212790208E+02      0.1997030672E+02      0.1582984481E+00     -0.1296702644E-01
          0                 2           5             1   15     1       0.1109893096E-02       1   15    1       0.1201246406E+01      0.1983241118E+01      0.1997030672E+02      0.1109893096E-02
          0                 3           3             1   15     1       0.5598797760E-04       1   15    1       0.6272872328E-01      0.9967296945E-01      0.1983241118E+01      0.5598797760E-04

    ------------------------------------------------
       NWT REQUIRED            3 OUTER ITERATIONS 
       AND A TOTAL OF         15 INNER ITERATIONS.
    ------------------------------------------------
                                                   Max.-Head-Change                        Max.-Flux-Residual
  Residual-Control   Outer-Iter.   Inner-Iter.     Column Row Layer    Max.-Head-Change    Column Row Layer    Max.-Flux-Residual            L2-New               L2-Old           Solver-Max-Delh
          0                 1           6             1   15     1      -0.7400527051E-02       1   15    1      -0.6784423242E+01      0.1150879583E+02      0.9967296945E-01     -0.7400527051E-02
          0                 2           5             1   15     1       0.6357987827E-03       1   15    1       0.6778361875E+00      0.1144695207E+01      0.1150879583E+02      0.6357987827E-03
          0                 3           3             1   15     1       0.3355339847E-04       1   15    1       0.3417919029E-01      0.6556700442E-01      0.1144695207E+01      0.3355339847E-04

    ------------------------------------------------
       NWT REQUIRED            3 OUTER ITERATIONS 
       AND A TOTAL OF         14 INNER ITERATIONS.
    ------------------------------------------------
                                                   Max.-Head-Change                        Max.-Flux-Residual
  Residual-Control   Outer-Iter.   Inner-Iter.     Column Row Layer    Max.-Head-Change    Column Row Layer    Max.-Flux-Residual            L2-New               L2-Old           Solver-Max-Delh
          0                 1           6             1   15     1      -0.3601764030E-02       1   15    1      -0.3256497423E+01      0.5738082472E+01      0.6556700442E-01     -0.3601764030E-02
          0                 2           5             1   15     1       0.3050172930E-03       1   15    1       0.3199795138E+00      0.5651679246E+00      0.5738082472E+01      0.3050172930E-03
          0                 3           3             1   15     1       0.1929295754E-04       1   15    1       0.2304595435E-01      0.3559506323E-01      0.5651679246E+00      0.1929295754E-04

    ------------------------------------------------
       NWT REQUIRED            3 OUTER ITERATIONS 
       AND A TOTAL OF         14 INNER ITERATIONS.
    ------------------------------------------------
                                                   Max.-Head-Change                        Max.-Flux-Residual
  Residual-Control   Outer-Iter.   Inner-Iter.     Column Row Layer    Max.-Head-Change    Column Row Layer    Max.-Flux-Residual            L2-New               L2-Old           Solver-Max-Delh
          0                 1           6             1   15     1      -0.1477227243E-02       1   15    1      -0.1333920277E+01      0.2454576602E+01      0.3559506323E-01     -0.1477227243E-02
          0                 2           4             1   15     1       0.1268386850E-03       1   15    1       0.1332956688E+00      0.2469689852E+00      0.2454576602E+01      0.1268386850E-03
          0                 3           2             1   15     1       0.1016336859E-04       6   15    1       0.1304658208E-01      0.2652542381E-01      0.2469689852E+00      0.1016336859E-04

    ------------------------------------------------
       NWT REQUIRED            3 OUTER ITERATIONS 
       AND A TOTAL OF         12 INNER ITERATIONS.
    ------------------------------------------------
                                                   Max.-Head-Change                        Max.-Flux-Residual
  Residual-Control   Outer-Iter.   Inner-Iter.     Column Row Layer    Max.-Head-Change    Column Row Layer    Max.-Flux-Residual            L2-New               L2-Old           Solver-Max-Delh
          0                 1           5             1   15     1      -0.4738575175E-03       1   15    1      -0.4228004469E+00      0.9239973022E+00      0.2652542381E-01     -0.4738575175E-03
          0                 2           4             1   15     1       0.4284479391E-04       1   15    1       0.4412886361E-01      0.9747315782E-01      0.9239973022E+00      0.4284479391E-04

    ------------------------------------------------
       NWT REQUIRED            2 OUTER ITERATIONS 
       AND A TOTAL OF          9 INNER ITERATIONS.
    ------------------------------------------------
                                                   Max.-Head-Change                        Max.-Flux-Residual
  Residual-Control   Outer-Iter.   Inner-Iter.     Column Row Layer    Max.-Head-Change    Column Row Layer    Max.-Flux-Residual            L2-New               L2-Old           Solver-Max-Delh
          0                 1           4             6   14     2      -0.1581325664E-03       6   15    1      -0.1301331799E+00      0.3655506471E+00      0.9747315782E-01     -0.1581325664E-03
          0                 2           3             6   14     1       0.1543408795E-04       6   14    1       0.1384976314E-01      0.4094506145E-01      0.3655506471E+00      0.1543408795E-04

    ------------------------------------------------
       NWT REQUIRED            2 OUTER ITERATIONS 
       AND A TOTAL OF          7 INNER ITERATIONS.
    ------------------------------------------------

 OUTPUT CONTROL FOR STRESS PERIOD     11   TIME STEP     1
    SAVE BUDGET
 UBDSV1 SAVING "         STORAGE" ON UNIT7013 AT TIME STEP    1, STRESS PERIOD  11
 UBDSV2 SAVING "   CONSTANT HEAD" ON UNIT7013 AT TIME STEP    1, STRESS PERIOD  11
 UBDSV1 SAVING "FLOW RIGHT FACE " ON UNIT7013 AT TIME STEP    1, STRESS PERIOD  11
 UBDSV1 SAVING "FLOW FRONT FACE " ON UNIT7013 AT TIME STEP    1, STRESS PERIOD  11
 UBDSV1 SAVING "FLOW LOWER FACE " ON UNIT7013 AT TIME STEP    1, STRESS PERIOD  11
 UBDSV4 SAVING "  STREAM LEAKAGE" ON UNIT7013 AT TIME STEP    1, STRESS PERIOD  11



 
 
 
 
 
 
 
 
 UBDSV3 SAVING "FARM  NET  RECH." ON UNIT7013 AT TIME STEP    1, STRESS PERIOD  11
 UBDSV4 SAVING " GHOST-NODE HEAD" ON UNIT7013 AT TIME STEP    1, STRESS PERIOD  11
1
  FLUX ACROSS PARENT-CHILD INTERFACE AT TIME STEP  1 IN STRESS PERIOD   11
  ------------------------------------------------------------------------
 G-N FLUX        PARENT        CHILD         DIFFERENCE      % DIFFERENCE
  RATE IN:      2.3455E+03    2.3452E+03     3.0469E-01        0.0130
 RATE OUT:      2.6959E+03    2.6964E+03    -5.3809E-01       -0.0200
 
 SOLVING FOR HEAD 
                                                   Max.-Head-Change                        Max.-Flux-Residual
  Residual-Control   Outer-Iter.   Inner-Iter.     Column Row Layer    Max.-Head-Change    Column Row Layer    Max.-Flux-Residual            L2-New               L2-Old           Solver-Max-Delh
          0                 1           9             1   14     1       0.4499584065E+00       1   14    1       0.5135670519E+03      0.6508194222E+03      0.4094506145E-01      0.4499584065E+00
          0                 2           7             1   14     1      -0.4484530699E-01       1   14    1      -0.1164146923E+03      0.1226523117E+03      0.6508194222E+03     -0.4484530699E-01
          0                 3           6             2   14     1      -0.1183954046E-01       2   14    1      -0.2076930798E+02      0.2165405162E+02      0.1226523117E+03     -0.1183954046E-01
          0                 4           5             2   14     1      -0.2248330442E-02       2   14    1      -0.4285211693E+01      0.4297276332E+01      0.2165405162E+02     -0.2248330442E-02
          0                 5           4             2   14     1      -0.3527829467E-03       2   14    1      -0.6843097611E+00      0.6848768742E+00      0.4297276332E+01     -0.3527829467E-03
          0                 6           3             2   14     1      -0.5416201922E-04       2   14    1      -0.1032311475E+00      0.1039039266E+00      0.6848768742E+00     -0.5416201922E-04

    ------------------------------------------------
       NWT REQUIRED            6 OUTER ITERATIONS 
       AND A TOTAL OF         34 INNER ITERATIONS.
    ------------------------------------------------
                                                   Max.-Head-Change                        Max.-Flux-Residual
  Residual-Control   Outer-Iter.   Inner-Iter.     Column Row Layer    Max.-Head-Change    Column Row Layer    Max.-Flux-Residual            L2-New               L2-Old           Solver-Max-Delh
          0                 1           8             1   14     1      -0.3275243231E+00       1   14    1      -0.4116696927E+03      0.5658433415E+03      0.1039039266E+00     -0.3275243231E+00
          0                 2           7             1   14     1       0.2760629600E-01       1   14    1       0.3968547427E+02      0.5455000798E+02      0.5658433415E+03      0.2760629600E-01
          0                 3           5             1   14     1       0.1399078095E-02       1   14    1       0.2003735050E+01      0.2733675104E+01      0.5455000798E+02      0.1399078095E-02
          0                 4           3             1   14     1       0.7049518961E-04       1   14    1       0.1019404359E+00      0.1394753229E+00      0.2733675104E+01      0.7049518961E-04

    ------------------------------------------------
       NWT REQUIRED            4 OUTER ITERATIONS 
       AND A TOTAL OF         23 INNER ITERATIONS.
    ------------------------------------------------
                                                   Max.-Head-Change                        Max.-Flux-Residual
  Residual-Control   Outer-Iter.   Inner-Iter.     Column Row Layer    Max.-Head-Change    Column Row Layer    Max.-Flux-Residual            L2-New               L2-Old           Solver-Max-Delh
          0                 1           8             1    1     2       0.2778268536E-01       6    1    1       0.1570662563E+02      0.4272801776E+02      0.1394753229E+00      0.2778268536E-01
          0                 2           6             1    1     2      -0.2400586816E-02       6    1    1      -0.1574483843E+01      0.4277859950E+01      0.4272801776E+02     -0.2400586816E-02
          0                 3           4             1    1     2      -0.1196522308E-03       6    1    1      -0.8380058443E-01      0.2166903705E+00      0.4277859950E+01     -0.1196522308E-03
          0                 4           2             2    1     1      -0.7286238372E-05       6    6    1      -0.8123224427E-02      0.1700043350E-01      0.2166903705E+00     -0.7286238372E-05

    ------------------------------------------------
       NWT REQUIRED            4 OUTER ITERATIONS 
       AND A TOTAL OF         20 INNER ITERATIONS.
    ------------------------------------------------
                                                   Max.-Head-Change                        Max.-Flux-Residual
  Residual-Control   Outer-Iter.   Inner-Iter.     Column Row Layer    Max.-Head-Change    Column Row Layer    Max.-Flux-Residual            L2-New               L2-Old           Solver-Max-Delh
          0                 1           7             1   15     1      -0.1200593621E-01       1   15    1      -0.1142998968E+02      0.2391454905E+02      0.1700043350E-01     -0.1200593621E-01
          0                 2           6             1   15     1       0.1026767842E-02       1   15    1       0.1133154872E+01      0.2383733111E+01      0.2391454905E+02      0.1026767842E-02
          0                 3           3             1   15     1       0.5745558176E-04       1   15    1       0.6536686548E-01      0.1278971726E+00      0.2383733111E+01      0.5745558176E-04

    ------------------------------------------------
       NWT REQUIRED            3 OUTER ITERATIONS 
       AND A TOTAL OF         16 INNER ITERATIONS.
    ------------------------------------------------
                                                   Max.-Head-Change                        Max.-Flux-Residual
  Residual-Control   Outer-Iter.   Inner-Iter.     Column Row Layer    Max.-Head-Change    Column Row Layer    Max.-Flux-Residual            L2-New               L2-Old           Solver-Max-Delh
          0                 1           6             1   15     1      -0.1063722753E-01       1   15    1      -0.9940708749E+01      0.1669472326E+02      0.1278971726E+00     -0.1063722753E-01
          0                 2           5             1   15     1       0.9065886013E-03       1   15    1       0.9842105680E+00      0.1650266268E+01      0.1669472326E+02      0.9065886013E-03
          0                 3           3             1   15     1       0.4361054857E-04       1   15    1       0.4445329268E-01      0.8244922115E-01      0.1650266268E+01      0.4361054857E-04

    ------------------------------------------------
       NWT REQUIRED            3 OUTER ITERATIONS 
       AND A TOTAL OF         14 INNER ITERATIONS.
    ------------------------------------------------
                                                   Max.-Head-Change                        Max.-Flux-Residual
  Residual-Control   Outer-Iter.   Inner-Iter.     Column Row Layer    Max.-Head-Change    Column Row Layer    Max.-Flux-Residual            L2-New               L2-Old           Solver-Max-Delh
          0                 1           6             1   15     1      -0.6794048036E-02       1   15    1      -0.6318493066E+01      0.1031003075E+02      0.8244922115E-01     -0.6794048036E-02
          0                 2           5             1   15     1       0.5804789571E-03       1   15    1       0.6265826129E+00      0.1020156274E+01      0.1031003075E+02      0.5804789571E-03
          0                 3           3             1   15     1       0.3173547075E-04       1   15    1       0.3599517135E-01      0.5737247582E-01      0.1020156274E+01      0.3173547075E-04

    ------------------------------------------------
       NWT REQUIRED            3 OUTER ITERATIONS 
       AND A TOTAL OF         14 INNER ITERATIONS.
    ------------------------------------------------
                                                   Max.-Head-Change                        Max.-Flux-Residual
  Residual-Control   Outer-Iter.   Inner-Iter.     Column Row Layer    Max.-Head-Change    Column Row Layer    Max.-Flux-Residual            L2-New               L2-Old           Solver-Max-Delh
          0                 1           6             1   15     1      -0.3656663278E-02       1   15    1      -0.3415847101E+01      0.5653898978E+01      0.5737247582E-01     -0.3656663278E-02
          0                 2           5             1   15     1       0.3184123611E-03       1   15    1       0.3469560750E+00      0.5676874800E+00      0.5653898978E+01      0.3184123611E-03
          0                 3           3             2   15     1       0.1541822613E-04       1   15    1       0.1567927969E-01      0.3513606347E-01      0.5676874800E+00      0.1541822613E-04

    ------------------------------------------------
       NWT REQUIRED            3 OUTER ITERATIONS 
       AND A TOTAL OF         14 INNER ITERATIONS.
    ------------------------------------------------
                                                   Max.-Head-Change                        Max.-Flux-Residual
  Residual-Control   Outer-Iter.   Inner-Iter.     Column Row Layer    Max.-Head-Change    Column Row Layer    Max.-Flux-Residual            L2-New               L2-Old           Solver-Max-Delh
          0                 1           6             1   15     1      -0.1718241423E-02       1   15    1      -0.1611118672E+01      0.2841586196E+01      0.3513606347E-01     -0.1718241423E-02
          0                 2           4             1   15     1       0.1480746135E-03       1   15    1       0.1654030670E+00      0.2786433495E+00      0.2841586196E+01      0.1480746135E-03
          0                 3           2             2   15     1       0.8574594935E-05       2    1    1       0.7446388132E-02      0.2160104303E-01      0.2786433495E+00      0.8574594935E-05

    ------------------------------------------------
       NWT REQUIRED            3 OUTER ITERATIONS 
       AND A TOTAL OF         12 INNER ITERATIONS.
    ------------------------------------------------
                                                   Max.-Head-Change                        Max.-Flux-Residual
  Residual-Control   Outer-Iter.   Inner-Iter.     Column Row Layer    Max.-Head-Change    Column Row Layer    Max.-Flux-Residual            L2-New               L2-Old           Solver-Max-Delh
          0                 1           5             1   15     1      -0.7311279351E-03       1   15    1      -0.6824228796E+00      0.1375044472E+01      0.2160104303E-01     -0.7311279351E-03
          0                 2           4             1   15     1       0.5735004325E-04       1   15    1       0.6046981527E-01      0.1361726379E+00      0.1375044472E+01      0.5735004325E-04

    ------------------------------------------------
       NWT REQUIRED            2 OUTER ITERATIONS 
       AND A TOTAL OF          9 INNER ITERATIONS.
    ------------------------------------------------
                                                   Max.-Head-Change                        Max.-Flux-Residual
  Residual-Control   Outer-Iter.   Inner-Iter.     Column Row Layer    Max.-Head-Change    Column Row Layer    Max.-Flux-Residual            L2-New               L2-Old           Solver-Max-Delh
          0                 1           5             2    1     2      -0.2775343729E-03       1   15    1      -0.2443280368E+00      0.6075395587E+00      0.1361726379E+00     -0.2775343729E-03
          0                 2           3             1   15     1       0.2405351848E-04       1   15    1       0.2851882402E-01      0.6582492379E-01      0.6075395587E+00      0.2405351848E-04

    ------------------------------------------------
       NWT REQUIRED            2 OUTER ITERATIONS 
       AND A TOTAL OF          8 INNER ITERATIONS.
    ------------------------------------------------

 OUTPUT CONTROL FOR STRESS PERIOD     11   TIME STEP     2
    SAVE BUDGET
 UBDSV1 SAVING "         STORAGE" ON UNIT7013 AT TIME STEP    2, STRESS PERIOD  11
 UBDSV2 SAVING "   CONSTANT HEAD" ON UNIT7013 AT TIME STEP    2, STRESS PERIOD  11
 UBDSV1 SAVING "FLOW RIGHT FACE " ON UNIT7013 AT TIME STEP    2, STRESS PERIOD  11
 UBDSV1 SAVING "FLOW FRONT FACE " ON UNIT7013 AT TIME STEP    2, STRESS PERIOD  11
 UBDSV1 SAVING "FLOW LOWER FACE " ON UNIT7013 AT TIME STEP    2, STRESS PERIOD  11
 UBDSV4 SAVING "  STREAM LEAKAGE" ON UNIT7013 AT TIME STEP    2, STRESS PERIOD  11



 
 
 
 
 
 
 
 
 UBDSV3 SAVING "FARM  NET  RECH." ON UNIT7013 AT TIME STEP    2, STRESS PERIOD  11
 UBDSV4 SAVING " GHOST-NODE HEAD" ON UNIT7013 AT TIME STEP    2, STRESS PERIOD  11
1
  VOLUMETRIC BUDGET FOR ENTIRE MODEL AT END OF TIME STEP    2 IN STRESS PERIOD     11
  ------------------------------------------------------------------------------

     CUMULATIVE VOLUMES      L**3       RATES FOR THIS TIME STEP      L**3/T
     ------------------                 ------------------------

           IN:                                      IN:
           ---                                      ---
             STORAGE =       78850.0391               STORAGE =           0.0000
       CONSTANT HEAD =           0.0000         CONSTANT HEAD =           0.0000
      STREAM LEAKAGE =      377948.3750        STREAM LEAKAGE =         213.9350
          FARM WELLS =           0.0000            FARM WELLS =           0.0000
    FARM  NET  RECH. =      166852.6719      FARM  NET  RECH. =         213.9350
     GHOST-NODE HEAD =     4065808.0000       GHOST-NODE HEAD =        2650.9885

            TOTAL IN =     4689459.0000              TOTAL IN =        3078.8584

          OUT:                                     OUT:
          ----                                     ----
             STORAGE =     3993745.7500               STORAGE =         367.0866
       CONSTANT HEAD =           0.0000         CONSTANT HEAD =           0.0000
      STREAM LEAKAGE =           0.0000        STREAM LEAKAGE =           0.0000
          FARM WELLS =       45434.2578            FARM WELLS =           0.0000
    FARM  NET  RECH. =           0.0000      FARM  NET  RECH. =           0.0000
     GHOST-NODE HEAD =      650276.3750       GHOST-NODE HEAD =        2711.7378

           TOTAL OUT =     4689456.5000             TOTAL OUT =        3078.8245

            IN - OUT =           2.5000              IN - OUT =       3.3936E-02

 PERCENT DISCREPANCY =           0.00     PERCENT DISCREPANCY =           0.00






          TIME SUMMARY AT END OF TIME STEP     2 IN STRESS PERIOD     11
                    SECONDS     MINUTES      HOURS       DAYS        YEARS
                    -----------------------------------------------------------
   TIME STEP LENGTH 1.31414E+06  21902.      365.04      15.210     4.16427E-02
 STRESS PERIOD TIME 2.62829E+06  43805.      730.08      30.420     8.32854E-02
         TOTAL TIME 2.89112E+07 4.81853E+05  8030.9      334.62     0.91614    
1
1
  FLUX ACROSS PARENT-CHILD INTERFACE AT TIME STEP  2 IN STRESS PERIOD   11
  ------------------------------------------------------------------------
 G-N FLUX        PARENT        CHILD         DIFFERENCE      % DIFFERENCE
  RATE IN:      2.6515E+03    2.6510E+03     5.1587E-01        0.0195
 RATE OUT:      2.7118E+03    2.7117E+03     1.0571E-01        0.0039
1
                            STRESS PERIOD NO.     12, LENGTH =   30.42000    
                            -----------------------------------------------

                              NUMBER OF TIME STEPS =     2

                               MULTIPLIER FOR DELT =     1.000

                            INITIAL TIME STEP SIZE =   15.21000    

 REUSING STREAM SEGMENT DATA FROM LAST STRESS PERIOD

 Parameter:  WELLS1
 WELL NO. LAYER    ROW    COL  F-WELL ID    FARM ID         QMAX         QMAXRESET       LGRGRID         
 --------------------------------------------------------------------------------------------------------
       1      1      2      2          5          2      2.0000E+03              0              0
       2      1      5      5          6          2      1.0000E+03              0              0

 NUMBER OF ACTIVE FARM WELLS:        2

 FARM-ID  NUMBER OF WELLS PER FARM  TOTAL MAX.CAPACITY PER FARM
       1                         0                       0.0000
       2                         2                    3000.0000
       3                         0                       0.0000
       4                         0                       0.0000
       5                         0                       0.0000
       6                         0                       0.0000
       7                         0                       0.0000
       8                         0                       0.0000

Transpiratory and Evaporative Fractions of Crop Consumptive Use
    % Transpiration % Evap. for Precip. % Evap. for Irrig.
    3          0.957          0.043          0.043
    5          0.926          0.074          0.000

FRACTIONS OF IN-EFFICIENT LOSSES TO SW-RUNOFF FROM 
     PRECIPITATION:  IRRIGATION:
    3          0.600          0.500
    5          0.830          0.000
 
 SOLVING FOR HEAD 
                                                   Max.-Head-Change                        Max.-Flux-Residual
  Residual-Control   Outer-Iter.   Inner-Iter.     Column Row Layer    Max.-Head-Change    Column Row Layer    Max.-Flux-Residual            L2-New               L2-Old           Solver-Max-Delh
          0                 1          10             4   14     1       0.9792979225E+00       6   14    1       0.5899036408E+03      0.1364726643E+04      0.6582492379E-01      0.9792979225E+00
          0                 2           9             4   14     1      -0.3464096531E+00       5   14    1      -0.4340682922E+03      0.9798769924E+03      0.1364726643E+04     -0.3464096531E+00
          0                 3           7             4   14     1      -0.1965058269E-01       5   14    1      -0.2590225005E+02      0.5603517562E+02      0.9798769924E+03     -0.1965058269E-01
          0                 4           5             4   14     1      -0.1092538688E-02       5   14    1      -0.1484003943E+01      0.3116325645E+01      0.5603517562E+02     -0.1092538688E-02
          0                 5           3             5   14     1      -0.6115560955E-04       6   14    1      -0.8453573578E-01      0.1731651116E+00      0.3116325645E+01     -0.6115560955E-04

    ------------------------------------------------
       NWT REQUIRED            5 OUTER ITERATIONS 
       AND A TOTAL OF         34 INNER ITERATIONS.
    ------------------------------------------------
                                                   Max.-Head-Change                        Max.-Flux-Residual
  Residual-Control   Outer-Iter.   Inner-Iter.     Column Row Layer    Max.-Head-Change    Column Row Layer    Max.-Flux-Residual            L2-New               L2-Old           Solver-Max-Delh
          0                 1           9             1   11     2       0.1187687748E+00       1   15    1       0.9965237952E+02      0.2742837601E+03      0.1731651116E+00      0.1187687748E+00
          0                 2           7             1   11     2      -0.1020351033E-01       1   15    1      -0.9957972059E+01      0.2753962060E+02      0.2742837601E+03     -0.1020351033E-01
          0                 3           5             1   11     2      -0.5149985737E-03       1   15    1      -0.4988064846E+00      0.1372478860E+01      0.2753962060E+02     -0.5149985737E-03
          0                 4           3             1   11     1      -0.2894817976E-04       1   15    1      -0.2525308332E-01      0.7399129013E-01      0.1372478860E+01     -0.2894817976E-04

    ------------------------------------------------
       NWT REQUIRED            4 OUTER ITERATIONS 
       AND A TOTAL OF         24 INNER ITERATIONS.
    ------------------------------------------------
                                                   Max.-Head-Change                        Max.-Flux-Residual
  Residual-Control   Outer-Iter.   Inner-Iter.     Column Row Layer    Max.-Head-Change    Column Row Layer    Max.-Flux-Residual            L2-New               L2-Old           Solver-Max-Delh
          0                 1           8             1   12     2       0.6437200125E-01       1   15    1       0.6123768486E+02      0.1568228625E+03      0.7399129013E-01      0.6437200125E-01
          0                 2           7             1   12     2      -0.5517037651E-02       1   15    1      -0.6109380302E+01      0.1561168808E+02      0.1568228625E+03     -0.5517037651E-02
          0                 3           5             1   12     2      -0.2798717421E-03       1   15    1      -0.3119961531E+00      0.7968707115E+00      0.1561168808E+02     -0.2798717421E-03
          0                 4           3             1   12     1      -0.1690419880E-04       1   10    1      -0.1541592961E-01      0.4399727268E-01      0.7968707115E+00     -0.1690419880E-04

    ------------------------------------------------
       NWT REQUIRED            4 OUTER ITERATIONS 
       AND A TOTAL OF         23 INNER ITERATIONS.
    ------------------------------------------------
                                                   Max.-Head-Change                        Max.-Flux-Residual
  Residual-Control   Outer-Iter.   Inner-Iter.     Column Row Layer    Max.-Head-Change    Column Row Layer    Max.-Flux-Residual            L2-New               L2-Old           Solver-Max-Delh
          0                 1           8             1   15     1       0.3070236730E-01       1   15    1       0.3148507910E+02      0.7670801260E+02      0.4399727268E-01      0.3070236730E-01
          0                 2           6             1   15     2      -0.2612591808E-02       1   15    1      -0.3146188398E+01      0.7644820764E+01      0.7670801260E+02     -0.2612591808E-02
          0                 3           4             1   15     1      -0.1338768853E-03       1   15    1      -0.1562511219E+00      0.3810952473E+00      0.7644820764E+01     -0.1338768853E-03
          0                 4           3             1    1     1      -0.1136738765E-04       2    1    1      -0.8418496349E-02      0.3043953097E-01      0.3810952473E+00     -0.1136738765E-04

    ------------------------------------------------
       NWT REQUIRED            4 OUTER ITERATIONS 
       AND A TOTAL OF         21 INNER ITERATIONS.
    ------------------------------------------------
                                                   Max.-Head-Change                        Max.-Flux-Residual
  Residual-Control   Outer-Iter.   Inner-Iter.     Column Row Layer    Max.-Head-Change    Column Row Layer    Max.-Flux-Residual            L2-New               L2-Old           Solver-Max-Delh
          0                 1           7             6   15     1       0.1363118374E-01       6   15    1       0.1386120405E+02      0.3251347056E+02      0.3043953097E-01      0.1363118374E-01
          0                 2           6             6   15     2      -0.1148214097E-02       6   15    1      -0.1404051201E+01      0.3248887443E+01      0.3251347056E+02     -0.1148214097E-02
          0                 3           4             6   15     1      -0.5920967280E-04       6   15    1      -0.6762209235E-01      0.1598959373E+00      0.3248887443E+01     -0.5920967280E-04

    ------------------------------------------------
       NWT REQUIRED            3 OUTER ITERATIONS 
       AND A TOTAL OF         17 INNER ITERATIONS.
    ------------------------------------------------
                                                   Max.-Head-Change                        Max.-Flux-Residual
  Residual-Control   Outer-Iter.   Inner-Iter.     Column Row Layer    Max.-Head-Change    Column Row Layer    Max.-Flux-Residual            L2-New               L2-Old           Solver-Max-Delh
          0                 1           6             6   15     1       0.5424111061E-02       6   15    1       0.5679147972E+01      0.1215773632E+02      0.1598959373E+00      0.5424111061E-02
          0                 2           5             6   15     1      -0.4569972916E-03       6   15    1      -0.5738385125E+00      0.1208107686E+01      0.1215773632E+02     -0.4569972916E-03
          0                 3           3             6   15     1      -0.2409616321E-04       6   15    1      -0.2825567839E-01      0.6414657152E-01      0.1208107686E+01     -0.2409616321E-04

    ------------------------------------------------
       NWT REQUIRED            3 OUTER ITERATIONS 
       AND A TOTAL OF         14 INNER ITERATIONS.
    ------------------------------------------------
                                                   Max.-Head-Change                        Max.-Flux-Residual
  Residual-Control   Outer-Iter.   Inner-Iter.     Column Row Layer    Max.-Head-Change    Column Row Layer    Max.-Flux-Residual            L2-New               L2-Old           Solver-Max-Delh
          0                 1           5             6   15     1       0.1618568100E-02       6   15    1       0.1784884015E+01      0.4268545382E+01      0.6414657152E-01      0.1618568100E-02
          0                 2           4             6   15     1      -0.1392911109E-03       6   15    1      -0.1841395042E+00      0.4273483817E+00      0.4268545382E+01     -0.1392911109E-03
          0                 3           2             6   15     2      -0.6292191042E-05       6    3    1      -0.8501763921E-02      0.2092412680E-01      0.4273483817E+00     -0.6292191042E-05

    ------------------------------------------------
       NWT REQUIRED            3 OUTER ITERATIONS 
       AND A TOTAL OF         11 INNER ITERATIONS.
    ------------------------------------------------
                                                   Max.-Head-Change                        Max.-Flux-Residual
  Residual-Control   Outer-Iter.   Inner-Iter.     Column Row Layer    Max.-Head-Change    Column Row Layer    Max.-Flux-Residual            L2-New               L2-Old           Solver-Max-Delh
          0                 1           5             1   11     1      -0.1045151989E-02       1   11    1      -0.8239042248E+00      0.1975565867E+01      0.2092412680E-01     -0.1045151989E-02
          0                 2           4             1   11     1       0.8941871397E-04       1   12    1       0.8316919184E-01      0.2010655099E+00      0.1975565867E+01      0.8941871397E-04

    ------------------------------------------------
       NWT REQUIRED            2 OUTER ITERATIONS 
       AND A TOTAL OF          9 INNER ITERATIONS.
    ------------------------------------------------
                                                   Max.-Head-Change                        Max.-Flux-Residual
  Residual-Control   Outer-Iter.   Inner-Iter.     Column Row Layer    Max.-Head-Change    Column Row Layer    Max.-Flux-Residual            L2-New               L2-Old           Solver-Max-Delh
          0                 1           5             1    1     1      -0.7077521766E-03       3    1    1      -0.3787862841E+00      0.1367664626E+01      0.2010655099E+00     -0.7077521766E-03
          0                 2           4             1    1     1       0.6021887447E-04       1    1    1       0.3800245246E-01      0.1367396117E+00      0.1367664626E+01      0.6021887447E-04

    ------------------------------------------------
       NWT REQUIRED            2 OUTER ITERATIONS 
       AND A TOTAL OF          9 INNER ITERATIONS.
    ------------------------------------------------
                                                   Max.-Head-Change                        Max.-Flux-Residual
  Residual-Control   Outer-Iter.   Inner-Iter.     Column Row Layer    Max.-Head-Change    Column Row Layer    Max.-Flux-Residual            L2-New               L2-Old           Solver-Max-Delh
          0                 1           5             1    1     2      -0.3897795158E-03       1   15    1      -0.2597058158E+00      0.9020612325E+00      0.1367396117E+00     -0.3897795158E-03
          0                 2           4             6    8     1       0.3398022908E-04       6    1    1       0.2674428653E-01      0.9383998059E-01      0.9020612325E+00      0.3398022908E-04

    ------------------------------------------------
       NWT REQUIRED            2 OUTER ITERATIONS 
       AND A TOTAL OF          9 INNER ITERATIONS.
    ------------------------------------------------
                                                   Max.-Head-Change                        Max.-Flux-Residual
  Residual-Control   Outer-Iter.   Inner-Iter.     Column Row Layer    Max.-Head-Change    Column Row Layer    Max.-Flux-Residual            L2-New               L2-Old           Solver-Max-Delh
          0                 1           4             6    6     2      -0.2175868682E-03       6   15    1      -0.1608106326E+00      0.5205985917E+00      0.9383998059E-01     -0.2175868682E-03
          0                 2           3             6    6     1       0.2016402731E-04       1   15    1       0.1787780167E-01      0.5884371605E-01      0.5205985917E+00      0.2016402731E-04

    ------------------------------------------------
       NWT REQUIRED            2 OUTER ITERATIONS 
       AND A TOTAL OF          7 INNER ITERATIONS.
    ------------------------------------------------

 OUTPUT CONTROL FOR STRESS PERIOD     12   TIME STEP     1
    SAVE BUDGET
 UBDSV1 SAVING "         STORAGE" ON UNIT7013 AT TIME STEP    1, STRESS PERIOD  12
 UBDSV2 SAVING "   CONSTANT HEAD" ON UNIT7013 AT TIME STEP    1, STRESS PERIOD  12
 UBDSV1 SAVING "FLOW RIGHT FACE " ON UNIT7013 AT TIME STEP    1, STRESS PERIOD  12
 UBDSV1 SAVING "FLOW FRONT FACE " ON UNIT7013 AT TIME STEP    1, STRESS PERIOD  12
 UBDSV1 SAVING "FLOW LOWER FACE " ON UNIT7013 AT TIME STEP    1, STRESS PERIOD  12
 UBDSV4 SAVING "  STREAM LEAKAGE" ON UNIT7013 AT TIME STEP    1, STRESS PERIOD  12



 
 
 
 
 
 
 
 
 UBDSV3 SAVING "FARM  NET  RECH." ON UNIT7013 AT TIME STEP    1, STRESS PERIOD  12
 UBDSV4 SAVING " GHOST-NODE HEAD" ON UNIT7013 AT TIME STEP    1, STRESS PERIOD  12
1
  FLUX ACROSS PARENT-CHILD INTERFACE AT TIME STEP  1 IN STRESS PERIOD   12
  ------------------------------------------------------------------------
 G-N FLUX        PARENT        CHILD         DIFFERENCE      % DIFFERENCE
  RATE IN:      2.2204E+03    2.2204E+03    -3.1738E-03       -0.0001
 RATE OUT:      3.2082E+03    3.2080E+03     2.7344E-01        0.0085
 
 SOLVING FOR HEAD 
                                                   Max.-Head-Change                        Max.-Flux-Residual
  Residual-Control   Outer-Iter.   Inner-Iter.     Column Row Layer    Max.-Head-Change    Column Row Layer    Max.-Flux-Residual            L2-New               L2-Old           Solver-Max-Delh
          0                 1           9             1    6     1       0.2570278689E+00       6    1    1       0.1213582780E+03      0.4314646663E+03      0.5884371605E-01      0.2570278689E+00
          0                 2           8             1    6     1      -0.2226940341E-01       6    1    1      -0.1218241640E+02      0.4251150420E+02      0.4314646663E+03     -0.2226940341E-01
          0                 3           6             1    6     1      -0.1116718663E-02       6    1    1      -0.6036074752E+00      0.2176517357E+01      0.4251150420E+02     -0.1116718663E-02
          0                 4           4             1    4     1      -0.5817862658E-04       6   15    1      -0.2935981716E-01      0.1171078974E+00      0.2176517357E+01     -0.5817862658E-04

    ------------------------------------------------
       NWT REQUIRED            4 OUTER ITERATIONS 
       AND A TOTAL OF         27 INNER ITERATIONS.
    ------------------------------------------------
                                                   Max.-Head-Change                        Max.-Flux-Residual
  Residual-Control   Outer-Iter.   Inner-Iter.     Column Row Layer    Max.-Head-Change    Column Row Layer    Max.-Flux-Residual            L2-New               L2-Old           Solver-Max-Delh
          0                 1           8             1    1     2       0.9411673436E-01       6    1    1       0.6486557403E+02      0.1940050677E+03      0.1171078974E+00      0.9411673436E-01
          0                 2           7             1    1     2      -0.8131766411E-02       6    1    1      -0.6524606647E+01      0.1951058561E+02      0.1940050677E+03     -0.8131766411E-02
          0                 3           5             1    1     2      -0.4054994860E-03       6    1    1      -0.3262338289E+00      0.9701640385E+00      0.1951058561E+02     -0.4054994860E-03
          0                 4           3             1    1     2      -0.2038282779E-04       6    1    1      -0.2341882617E-01      0.5401620211E-01      0.9701640385E+00     -0.2038282779E-04

    ------------------------------------------------
       NWT REQUIRED            4 OUTER ITERATIONS 
       AND A TOTAL OF         23 INNER ITERATIONS.
    ------------------------------------------------
                                                   Max.-Head-Change                        Max.-Flux-Residual
  Residual-Control   Outer-Iter.   Inner-Iter.     Column Row Layer    Max.-Head-Change    Column Row Layer    Max.-Flux-Residual            L2-New               L2-Old           Solver-Max-Delh
          0                 1           8             1    1     2       0.4684714328E-01       6    1    1       0.3311770768E+02      0.9610397941E+02      0.5401620211E-01      0.4684714328E-01
          0                 2           7             1    1     2      -0.4045905220E-02       6    1    1      -0.3328105815E+01      0.9603303447E+01      0.9610397941E+02     -0.4045905220E-02
          0                 3           4             1    1     2      -0.2019902757E-03       6    1    1      -0.1702394682E+00      0.4915048835E+00      0.9603303447E+01     -0.2019902757E-03
          0                 4           3             1    6     3      -0.1107679190E-04       1   10    1      -0.8340030094E-02      0.2519248622E-01      0.4915048835E+00     -0.1107679190E-04

    ------------------------------------------------
       NWT REQUIRED            4 OUTER ITERATIONS 
       AND A TOTAL OF         22 INNER ITERATIONS.
    ------------------------------------------------
                                                   Max.-Head-Change                        Max.-Flux-Residual
  Residual-Control   Outer-Iter.   Inner-Iter.     Column Row Layer    Max.-Head-Change    Column Row Layer    Max.-Flux-Residual            L2-New               L2-Old           Solver-Max-Delh
          0                 1           7             1    1     2       0.1925090112E-01       6    1    1       0.1484914915E+02      0.4005575430E+02      0.2519248622E-01      0.1925090112E-01
          0                 2           6             1    1     2      -0.1662665510E-02       6    1    1      -0.1482804048E+01      0.4004672936E+01      0.4005575430E+02     -0.1662665510E-02
          0                 3           4             1    1     2      -0.8296382733E-04       6    1    1      -0.7928993995E-01      0.2047087336E+00      0.4004672936E+01     -0.8296382733E-04

    ------------------------------------------------
       NWT REQUIRED            3 OUTER ITERATIONS 
       AND A TOTAL OF         17 INNER ITERATIONS.
    ------------------------------------------------
                                                   Max.-Head-Change                        Max.-Flux-Residual
  Residual-Control   Outer-Iter.   Inner-Iter.     Column Row Layer    Max.-Head-Change    Column Row Layer    Max.-Flux-Residual            L2-New               L2-Old           Solver-Max-Delh
          0                 1           7             6    2     2       0.7075638226E-02       6    1    1       0.5608408296E+01      0.1314800898E+02      0.2047087336E+00      0.7075638226E-02
          0                 2           5             6    2     2      -0.6118884493E-03       6    1    1      -0.5660230044E+00      0.1323835474E+01      0.1314800898E+02     -0.6118884493E-03
          0                 3           3             6    2     2      -0.3071782259E-04       6    1    1      -0.2770102007E-01      0.6629822696E-01      0.1323835474E+01     -0.3071782259E-04

    ------------------------------------------------
       NWT REQUIRED            3 OUTER ITERATIONS 
       AND A TOTAL OF         15 INNER ITERATIONS.
    ------------------------------------------------
                                                   Max.-Head-Change                        Max.-Flux-Residual
  Residual-Control   Outer-Iter.   Inner-Iter.     Column Row Layer    Max.-Head-Change    Column Row Layer    Max.-Flux-Residual            L2-New               L2-Old           Solver-Max-Delh
          0                 1           5             6   15     3       0.2291101438E-02       6    1    1       0.1493277556E+01      0.3729526782E+01      0.6629822696E-01      0.2291101438E-02
          0                 2           4             6   15     3      -0.1971466866E-03       6    1    1      -0.1516406597E+00      0.3788039759E+00      0.3729526782E+01     -0.1971466866E-03
          0                 3           2             6   15     3      -0.9559968643E-05       6    1    1      -0.1350257214E-01      0.2351215165E-01      0.3788039759E+00     -0.9559968643E-05

    ------------------------------------------------
       NWT REQUIRED            3 OUTER ITERATIONS 
       AND A TOTAL OF         11 INNER ITERATIONS.
    ------------------------------------------------
                                                   Max.-Head-Change                        Max.-Flux-Residual
  Residual-Control   Outer-Iter.   Inner-Iter.     Column Row Layer    Max.-Head-Change    Column Row Layer    Max.-Flux-Residual            L2-New               L2-Old           Solver-Max-Delh
          0                 1           5             1   11     2      -0.1536847883E-02       1   10    1      -0.1133877162E+01      0.2480437354E+01      0.2351215165E-01     -0.1536847883E-02
          0                 2           4             1   11     2       0.1317086997E-03       1   11    1       0.1139703755E+00      0.2457471330E+00      0.2480437354E+01      0.1317086997E-03
          0                 3           2             1   10     1       0.6212358858E-05       1   10    1       0.8898935281E-02      0.1662073059E-01      0.2457471330E+00      0.6212358858E-05

    ------------------------------------------------
       NWT REQUIRED            3 OUTER ITERATIONS 
       AND A TOTAL OF         11 INNER ITERATIONS.
    ------------------------------------------------
                                                   Max.-Head-Change                        Max.-Flux-Residual
  Residual-Control   Outer-Iter.   Inner-Iter.     Column Row Layer    Max.-Head-Change    Column Row Layer    Max.-Flux-Residual            L2-New               L2-Old           Solver-Max-Delh
          0                 1           5             2    1     2      -0.1063323931E-02       1   12    1      -0.6352400713E+00      0.1954521557E+01      0.1662073059E-01     -0.1063323931E-02
          0                 2           4             2    1     2       0.8955271504E-04       1   11    1       0.6565493951E-01      0.1937791772E+00      0.1954521557E+01      0.8955271504E-04

    ------------------------------------------------
       NWT REQUIRED            2 OUTER ITERATIONS 
       AND A TOTAL OF          9 INNER ITERATIONS.
    ------------------------------------------------
                                                   Max.-Head-Change                        Max.-Flux-Residual
  Residual-Control   Outer-Iter.   Inner-Iter.     Column Row Layer    Max.-Head-Change    Column Row Layer    Max.-Flux-Residual            L2-New               L2-Old           Solver-Max-Delh
          0                 1           5             1    1     2      -0.7168516369E-03       3    1    1      -0.3593574167E+00      0.1253651163E+01      0.1937791772E+00     -0.7168516369E-03
          0                 2           4             1    1     2       0.6110367323E-04       3    1    1       0.4083260195E-01      0.1284355885E+00      0.1253651163E+01      0.6110367323E-04

    ------------------------------------------------
       NWT REQUIRED            2 OUTER ITERATIONS 
       AND A TOTAL OF          9 INNER ITERATIONS.
    ------------------------------------------------
                                                   Max.-Head-Change                        Max.-Flux-Residual
  Residual-Control   Outer-Iter.   Inner-Iter.     Column Row Layer    Max.-Head-Change    Column Row Layer    Max.-Flux-Residual            L2-New               L2-Old           Solver-Max-Delh
          0                 1           5             1    1     2      -0.3823609967E-03       6    1    1      -0.2503348129E+00      0.7133112303E+00      0.1284355885E+00     -0.3823609967E-03
          0                 2           3             2    1     2       0.3285595023E-04       6    1    1       0.3045039577E-01      0.7969339608E-01      0.7133112303E+00      0.3285595023E-04

    ------------------------------------------------
       NWT REQUIRED            2 OUTER ITERATIONS 
       AND A TOTAL OF          8 INNER ITERATIONS.
    ------------------------------------------------
                                                   Max.-Head-Change                        Max.-Flux-Residual
  Residual-Control   Outer-Iter.   Inner-Iter.     Column Row Layer    Max.-Head-Change    Column Row Layer    Max.-Flux-Residual            L2-New               L2-Old           Solver-Max-Delh
          0                 1           4             6    3     2      -0.1795428687E-03       6    1    1      -0.1264467995E+00      0.3508495472E+00      0.7969339608E-01     -0.1795428687E-03
          0                 2           3             2    1     1       0.1709037663E-04       6    7    1       0.1448470884E-01      0.3906507919E-01      0.3508495472E+00      0.1709037663E-04

    ------------------------------------------------
       NWT REQUIRED            2 OUTER ITERATIONS 
       AND A TOTAL OF          7 INNER ITERATIONS.
    ------------------------------------------------

 OUTPUT CONTROL FOR STRESS PERIOD     12   TIME STEP     2
    PRINT BUDGET
    SAVE HEAD FOR ALL LAYERS
    SAVE BUDGET
 UBDSV1 SAVING "         STORAGE" ON UNIT7013 AT TIME STEP    2, STRESS PERIOD  12
 UBDSV2 SAVING "   CONSTANT HEAD" ON UNIT7013 AT TIME STEP    2, STRESS PERIOD  12
 UBDSV1 SAVING "FLOW RIGHT FACE " ON UNIT7013 AT TIME STEP    2, STRESS PERIOD  12
 UBDSV1 SAVING "FLOW FRONT FACE " ON UNIT7013 AT TIME STEP    2, STRESS PERIOD  12
 UBDSV1 SAVING "FLOW LOWER FACE " ON UNIT7013 AT TIME STEP    2, STRESS PERIOD  12
 UBDSV4 SAVING "  STREAM LEAKAGE" ON UNIT7013 AT TIME STEP    2, STRESS PERIOD  12



 
 
 
 
 
 
 
 
 UBDSV3 SAVING "FARM  NET  RECH." ON UNIT7013 AT TIME STEP    2, STRESS PERIOD  12
 UBDSV4 SAVING " GHOST-NODE HEAD" ON UNIT7013 AT TIME STEP    2, STRESS PERIOD  12

 HEAD WILL BE SAVED ON UNIT 2213 AT END OF TIME STEP     2, STRESS PERIOD     12
1
  VOLUMETRIC BUDGET FOR ENTIRE MODEL AT END OF TIME STEP    2 IN STRESS PERIOD     12
  ------------------------------------------------------------------------------

     CUMULATIVE VOLUMES      L**3       RATES FOR THIS TIME STEP      L**3/T
     ------------------                 ------------------------

           IN:                                      IN:
           ---                                      ---
             STORAGE =       78850.0391               STORAGE =           0.0000
       CONSTANT HEAD =           0.0000         CONSTANT HEAD =           0.0000
      STREAM LEAKAGE =      422140.1875        STREAM LEAKAGE =        1217.9819
          FARM WELLS =           0.0000            FARM WELLS =           0.0000
    FARM  NET  RECH. =      190628.5781      FARM  NET  RECH. =         781.5877
     GHOST-NODE HEAD =     4135579.2500       GHOST-NODE HEAD =        2366.8308

            TOTAL IN =     4827198.0000              TOTAL IN =        4366.4004

          OUT:                                     OUT:
          ----                                     ----
             STORAGE =     4031910.2500               STORAGE =        1027.7365
       CONSTANT HEAD =           0.0000         CONSTANT HEAD =           0.0000
      STREAM LEAKAGE =           0.0000        STREAM LEAKAGE =           0.0000
          FARM WELLS =       45434.2578            FARM WELLS =           0.0000
    FARM  NET  RECH. =           0.0000      FARM  NET  RECH. =           0.0000
     GHOST-NODE HEAD =      749850.2500       GHOST-NODE HEAD =        3338.6472

           TOTAL OUT =     4827195.0000             TOTAL OUT =        4366.3838

            IN - OUT =           3.0000              IN - OUT =       1.6602E-02

 PERCENT DISCREPANCY =           0.00     PERCENT DISCREPANCY =           0.00






          TIME SUMMARY AT END OF TIME STEP     2 IN STRESS PERIOD     12
                    SECONDS     MINUTES      HOURS       DAYS        YEARS
                    -----------------------------------------------------------
   TIME STEP LENGTH 1.31414E+06  21902.      365.04      15.210     4.16427E-02
 STRESS PERIOD TIME 2.62829E+06  43805.      730.08      30.420     8.32854E-02
         TOTAL TIME 3.15395E+07 5.25658E+05  8761.0      365.04     0.99942    
1
1
  FLUX ACROSS PARENT-CHILD INTERFACE AT TIME STEP  2 IN STRESS PERIOD   12
  ------------------------------------------------------------------------
 G-N FLUX        PARENT        CHILD         DIFFERENCE      % DIFFERENCE
  RATE IN:      2.3671E+03    2.3668E+03     2.4170E-01        0.0102
 RATE OUT:      3.3385E+03    3.3386E+03    -1.6064E-01       -0.0048
1
                            STRESS PERIOD NO.     13, LENGTH =   30.42000    
                            -----------------------------------------------

                              NUMBER OF TIME STEPS =     2

                               MULTIPLIER FOR DELT =     1.000

                            INITIAL TIME STEP SIZE =   15.21000    

 REUSING STREAM SEGMENT DATA FROM LAST STRESS PERIOD

 Parameter:  WELLS1
 WELL NO. LAYER    ROW    COL  F-WELL ID    FARM ID         QMAX         QMAXRESET       LGRGRID         
 --------------------------------------------------------------------------------------------------------
       1      1      2      2          5          2      2.0000E+03              0              0
       2      1      5      5          6          2      1.0000E+03              0              0

 NUMBER OF ACTIVE FARM WELLS:        2

 FARM-ID  NUMBER OF WELLS PER FARM  TOTAL MAX.CAPACITY PER FARM
       1                         0                       0.0000
       2                         2                    3000.0000
       3                         0                       0.0000
       4                         0                       0.0000
       5                         0                       0.0000
       6                         0                       0.0000
       7                         0                       0.0000
       8                         0                       0.0000

Transpiratory and Evaporative Fractions of Crop Consumptive Use
    % Transpiration % Evap. for Precip. % Evap. for Irrig.
    3          0.957          0.043          0.043
    5          0.777          0.223          0.000

FRACTIONS OF IN-EFFICIENT LOSSES TO SW-RUNOFF FROM 
     PRECIPITATION:  IRRIGATION:
    3          0.600          0.500
    5          0.840          0.000
 
 SOLVING FOR HEAD 
                                                   Max.-Head-Change                        Max.-Flux-Residual
  Residual-Control   Outer-Iter.   Inner-Iter.     Column Row Layer    Max.-Head-Change    Column Row Layer    Max.-Flux-Residual            L2-New               L2-Old           Solver-Max-Delh
          0                 1           9             1    4     1       0.2344290605E+00       6    1    1       0.1235392929E+03      0.3394204938E+03      0.3906507919E-01      0.2344290605E+00
          0                 2           7             1    4     1      -0.2034124723E-01       6    1    1      -0.1240831805E+02      0.3381376405E+02      0.3394204938E+03     -0.2034124723E-01
          0                 3           5             1    4     1      -0.1017331432E-02       6    1    1      -0.6148660588E+00      0.1697676922E+01      0.3381376405E+02     -0.1017331432E-02
          0                 4           4             1    5     4      -0.5398509418E-04       6    1    1      -0.2554114553E-01      0.8440240831E-01      0.1697676922E+01     -0.5398509418E-04

    ------------------------------------------------
       NWT REQUIRED            4 OUTER ITERATIONS 
       AND A TOTAL OF         25 INNER ITERATIONS.
    ------------------------------------------------
                                                   Max.-Head-Change                        Max.-Flux-Residual
  Residual-Control   Outer-Iter.   Inner-Iter.     Column Row Layer    Max.-Head-Change    Column Row Layer    Max.-Flux-Residual            L2-New               L2-Old           Solver-Max-Delh
          0                 1           8             1    1     2       0.8658523486E-01       6    1    1       0.6389196059E+02      0.1619447430E+03      0.8440240831E-01      0.8658523486E-01
          0                 2           7             1    1     2      -0.7481425111E-02       6    1    1      -0.6432373621E+01      0.1628919662E+02      0.1619447430E+03     -0.7481425111E-02
          0                 3           5             1    1     2      -0.3729416371E-03       6    1    1      -0.3153666508E+00      0.8115121146E+00      0.1628919662E+02     -0.3729416371E-03
          0                 4           3             6    1     1      -0.2142559762E-04       6    1    1      -0.2340786241E-01      0.4597392015E-01      0.8115121146E+00     -0.2142559762E-04

    ------------------------------------------------
       NWT REQUIRED            4 OUTER ITERATIONS 
       AND A TOTAL OF         23 INNER ITERATIONS.
    ------------------------------------------------
                                                   Max.-Head-Change                        Max.-Flux-Residual
  Residual-Control   Outer-Iter.   Inner-Iter.     Column Row Layer    Max.-Head-Change    Column Row Layer    Max.-Flux-Residual            L2-New               L2-Old           Solver-Max-Delh
          0                 1           8             1    1     2       0.4133822422E-01       6    1    1       0.3164316887E+02      0.7899034787E+02      0.4597392015E-01      0.4133822422E-01
          0                 2           6             1    1     2      -0.3569690751E-02       6    1    1      -0.3184661280E+01      0.7906327079E+01      0.7899034787E+02     -0.3569690751E-02
          0                 3           4             1    1     2      -0.1789573819E-03       6    1    1      -0.1517570328E+00      0.3974786814E+00      0.7906327079E+01     -0.1789573819E-03
          0                 4           3             1    1     1      -0.1120558252E-04       6    1    1      -0.1259056502E-01      0.2806191115E-01      0.3974786814E+00     -0.1120558252E-04

    ------------------------------------------------
       NWT REQUIRED            4 OUTER ITERATIONS 
       AND A TOTAL OF         21 INNER ITERATIONS.
    ------------------------------------------------
                                                   Max.-Head-Change                        Max.-Flux-Residual
  Residual-Control   Outer-Iter.   Inner-Iter.     Column Row Layer    Max.-Head-Change    Column Row Layer    Max.-Flux-Residual            L2-New               L2-Old           Solver-Max-Delh
          0                 1           7             6    1     2       0.1723179646E-01       6    1    1       0.1372371631E+02      0.3280260818E+02      0.2806191115E-01      0.1723179646E-01
          0                 2           6             6    1     2      -0.1489526890E-02       6    1    1      -0.1375061553E+01      0.3288825756E+01      0.3280260818E+02     -0.1489526890E-02
          0                 3           4             6    1     1      -0.7533388716E-04       6    1    1      -0.7142257411E-01      0.1627732330E+00      0.3288825756E+01     -0.7533388716E-04

    ------------------------------------------------
       NWT REQUIRED            3 OUTER ITERATIONS 
       AND A TOTAL OF         17 INNER ITERATIONS.
    ------------------------------------------------
                                                   Max.-Head-Change                        Max.-Flux-Residual
  Residual-Control   Outer-Iter.   Inner-Iter.     Column Row Layer    Max.-Head-Change    Column Row Layer    Max.-Flux-Residual            L2-New               L2-Old           Solver-Max-Delh
          0                 1           7             6    1     2       0.6056726279E-02       6    1    1       0.4929983357E+01      0.1043642445E+02      0.1627732330E+00      0.6056726279E-02
          0                 2           5             6    1     2      -0.5226732057E-03       6    1    1      -0.4919990777E+00      0.1043460620E+01      0.1043642445E+02     -0.5226732057E-03
          0                 3           3             6    1     1      -0.2885443111E-04       6    1    1      -0.2935488807E-01      0.6028312351E-01      0.1043460620E+01     -0.2885443111E-04

    ------------------------------------------------
       NWT REQUIRED            3 OUTER ITERATIONS 
       AND A TOTAL OF         15 INNER ITERATIONS.
    ------------------------------------------------
                                                   Max.-Head-Change                        Max.-Flux-Residual
  Residual-Control   Outer-Iter.   Inner-Iter.     Column Row Layer    Max.-Head-Change    Column Row Layer    Max.-Flux-Residual            L2-New               L2-Old           Solver-Max-Delh
          0                 1           5             6   15     3       0.2031381529E-02       6    1    1       0.1189178375E+01      0.2468240242E+01      0.6028312351E-01      0.2031381529E-02
          0                 2           4             6   15     3      -0.1748470539E-03       6    1    1      -0.1189025351E+00      0.2476888816E+00      0.2468240242E+01     -0.1748470539E-03
          0                 3           2             6   15     3      -0.8414743290E-05       1   10    1       0.8645323454E-02      0.2028304134E-01      0.2476888816E+00     -0.8414743290E-05

    ------------------------------------------------
       NWT REQUIRED            3 OUTER ITERATIONS 
       AND A TOTAL OF         11 INNER ITERATIONS.
    ------------------------------------------------
                                                   Max.-Head-Change                        Max.-Flux-Residual
  Residual-Control   Outer-Iter.   Inner-Iter.     Column Row Layer    Max.-Head-Change    Column Row Layer    Max.-Flux-Residual            L2-New               L2-Old           Solver-Max-Delh
          0                 1           5             1   11     2      -0.1234205384E-02       1   10    1      -0.8288116914E+00      0.1986465751E+01      0.2028304134E-01     -0.1234205384E-02
          0                 2           4             1   11     2       0.1060053756E-03       1   11    1       0.8512567054E-01      0.1955417002E+00      0.1986465751E+01      0.1060053756E-03
          0                 3           2             1   15     1       0.7981634239E-05       1   15    1       0.1530576579E-01      0.2252705144E-01      0.1955417002E+00      0.7981634239E-05

    ------------------------------------------------
       NWT REQUIRED            3 OUTER ITERATIONS 
       AND A TOTAL OF         11 INNER ITERATIONS.
    ------------------------------------------------
                                                   Max.-Head-Change                        Max.-Flux-Residual
  Residual-Control   Outer-Iter.   Inner-Iter.     Column Row Layer    Max.-Head-Change    Column Row Layer    Max.-Flux-Residual            L2-New               L2-Old           Solver-Max-Delh
          0                 1           5             1    1     2      -0.9741799532E-03       1   10    1      -0.5171228762E+00      0.1689805010E+01      0.2252705144E-01     -0.9741799532E-03
          0                 2           4             1    1     2       0.8263952111E-04       1   11    1       0.5023918091E-01      0.1670887441E+00      0.1689805010E+01      0.8263952111E-04

    ------------------------------------------------
       NWT REQUIRED            2 OUTER ITERATIONS 
       AND A TOTAL OF          9 INNER ITERATIONS.
    ------------------------------------------------
                                                   Max.-Head-Change                        Max.-Flux-Residual
  Residual-Control   Outer-Iter.   Inner-Iter.     Column Row Layer    Max.-Head-Change    Column Row Layer    Max.-Flux-Residual            L2-New               L2-Old           Solver-Max-Delh
          0                 1           5             1    1     2      -0.6213589820E-03       6    1    1      -0.3593284655E+00      0.1091017694E+01      0.1670887441E+00     -0.6213589820E-03
          0                 2           4             1    1     1       0.5402679497E-04       1    1    1       0.3436075966E-01      0.1087115799E+00      0.1091017694E+01      0.5402679497E-04

    ------------------------------------------------
       NWT REQUIRED            2 OUTER ITERATIONS 
       AND A TOTAL OF          9 INNER ITERATIONS.
    ------------------------------------------------
                                                   Max.-Head-Change                        Max.-Flux-Residual
  Residual-Control   Outer-Iter.   Inner-Iter.     Column Row Layer    Max.-Head-Change    Column Row Layer    Max.-Flux-Residual            L2-New               L2-Old           Solver-Max-Delh
          0                 1           5             1    1     2      -0.3205443311E-03       6    1    1      -0.2186043258E+00      0.5902421736E+00      0.1087115799E+00     -0.3205443311E-03
          0                 2           3             1    1     1       0.2820224865E-04       6    8    1       0.1974397531E-01      0.6485534358E-01      0.5902421736E+00      0.2820224865E-04

    ------------------------------------------------
       NWT REQUIRED            2 OUTER ITERATIONS 
       AND A TOTAL OF          8 INNER ITERATIONS.
    ------------------------------------------------

 OUTPUT CONTROL FOR STRESS PERIOD     13   TIME STEP     1
    SAVE BUDGET
 UBDSV1 SAVING "         STORAGE" ON UNIT7013 AT TIME STEP    1, STRESS PERIOD  13
 UBDSV2 SAVING "   CONSTANT HEAD" ON UNIT7013 AT TIME STEP    1, STRESS PERIOD  13
 UBDSV1 SAVING "FLOW RIGHT FACE " ON UNIT7013 AT TIME STEP    1, STRESS PERIOD  13
 UBDSV1 SAVING "FLOW FRONT FACE " ON UNIT7013 AT TIME STEP    1, STRESS PERIOD  13
 UBDSV1 SAVING "FLOW LOWER FACE " ON UNIT7013 AT TIME STEP    1, STRESS PERIOD  13
 UBDSV4 SAVING "  STREAM LEAKAGE" ON UNIT7013 AT TIME STEP    1, STRESS PERIOD  13



 
 
 
 
 
 
 
 
 UBDSV3 SAVING "FARM  NET  RECH." ON UNIT7013 AT TIME STEP    1, STRESS PERIOD  13
 UBDSV4 SAVING " GHOST-NODE HEAD" ON UNIT7013 AT TIME STEP    1, STRESS PERIOD  13
1
  FLUX ACROSS PARENT-CHILD INTERFACE AT TIME STEP  1 IN STRESS PERIOD   13
  ------------------------------------------------------------------------
 G-N FLUX        PARENT        CHILD         DIFFERENCE      % DIFFERENCE
  RATE IN:      2.4856E+03    2.4853E+03     3.5010E-01        0.0141
 RATE OUT:      3.3965E+03    3.3962E+03     2.6416E-01        0.0078
 
 SOLVING FOR HEAD 
                                                   Max.-Head-Change                        Max.-Flux-Residual
  Residual-Control   Outer-Iter.   Inner-Iter.     Column Row Layer    Max.-Head-Change    Column Row Layer    Max.-Flux-Residual            L2-New               L2-Old           Solver-Max-Delh
          0                 1           9             1    3     1       0.2121226111E+00       6    1    1       0.1192931388E+03      0.3054652770E+03      0.6485534358E-01      0.2121226111E+00
          0                 2           7             1    3     1      -0.1838609544E-01       6    1    1      -0.1199670071E+02      0.3047593785E+02      0.3054652770E+03     -0.1838609544E-01
          0                 3           5             1    3     1      -0.9196635004E-03       6    1    1      -0.5828250932E+00      0.1527504356E+01      0.3047593785E+02     -0.9196635004E-03
          0                 4           4             1    5     4      -0.5287655555E-04       6    1    1      -0.3360766347E-01      0.8092819210E-01      0.1527504356E+01     -0.5287655555E-04

    ------------------------------------------------
       NWT REQUIRED            4 OUTER ITERATIONS 
       AND A TOTAL OF         25 INNER ITERATIONS.
    ------------------------------------------------
                                                   Max.-Head-Change                        Max.-Flux-Residual
  Residual-Control   Outer-Iter.   Inner-Iter.     Column Row Layer    Max.-Head-Change    Column Row Layer    Max.-Flux-Residual            L2-New               L2-Old           Solver-Max-Delh
          0                 1           8             1    1     2       0.8061125709E-01       6    1    1       0.6037077881E+02      0.1431931057E+03      0.8092819210E-01      0.8061125709E-01
          0                 2           7             1    1     2      -0.6963743213E-02       6    1    1      -0.6079700671E+01      0.1439705470E+02      0.1431931057E+03     -0.6963743213E-02
          0                 3           5             1    1     2      -0.3477024474E-03       6    1    1      -0.3000486367E+00      0.7168927046E+00      0.1439705470E+02     -0.3477024474E-03
          0                 4           3             1    1     3      -0.1745841708E-04       6   15    1      -0.1480220491E-01      0.3686387604E-01      0.7168927046E+00     -0.1745841708E-04

    ------------------------------------------------
       NWT REQUIRED            4 OUTER ITERATIONS 
       AND A TOTAL OF         23 INNER ITERATIONS.
    ------------------------------------------------
                                                   Max.-Head-Change                        Max.-Flux-Residual
  Residual-Control   Outer-Iter.   Inner-Iter.     Column Row Layer    Max.-Head-Change    Column Row Layer    Max.-Flux-Residual            L2-New               L2-Old           Solver-Max-Delh
          0                 1           8             1    1     2       0.3751569797E-01       6    1    1       0.2932711752E+02      0.6875713942E+02      0.3686387604E-01      0.3751569797E-01
          0                 2           6             1    1     2      -0.3241147592E-02       6    1    1      -0.2952793474E+01      0.6897392240E+01      0.6875713942E+02     -0.3241147592E-02
          0                 3           4             1    1     2      -0.1618183838E-03       6    1    1      -0.1456373652E+00      0.3393175369E+00      0.6897392240E+01     -0.1618183838E-03
          0                 4           3             6    6     1      -0.1014256974E-04       1   13    1      -0.8198794676E-02      0.2649188151E-01      0.3393175369E+00     -0.1014256974E-04

    ------------------------------------------------
       NWT REQUIRED            4 OUTER ITERATIONS 
       AND A TOTAL OF         21 INNER ITERATIONS.
    ------------------------------------------------
                                                   Max.-Head-Change                        Max.-Flux-Residual
  Residual-Control   Outer-Iter.   Inner-Iter.     Column Row Layer    Max.-Head-Change    Column Row Layer    Max.-Flux-Residual            L2-New               L2-Old           Solver-Max-Delh
          0                 1           7             6    1     2       0.1557233434E-01       6    1    1       0.1241775910E+02      0.2819963814E+02      0.2649188151E-01      0.1557233434E-01
          0                 2           5             6    1     2      -0.1345057177E-02       6    1    1      -0.1247986137E+01      0.2822810974E+01      0.2819963814E+02     -0.1345057177E-02
          0                 3           4             6    2     3      -0.6830204688E-04       6    1    1      -0.5912645848E-01      0.1429868322E+00      0.2822810974E+01     -0.6830204688E-04

    ------------------------------------------------
       NWT REQUIRED            3 OUTER ITERATIONS 
       AND A TOTAL OF         16 INNER ITERATIONS.
    ------------------------------------------------
                                                   Max.-Head-Change                        Max.-Flux-Residual
  Residual-Control   Outer-Iter.   Inner-Iter.     Column Row Layer    Max.-Head-Change    Column Row Layer    Max.-Flux-Residual            L2-New               L2-Old           Solver-Max-Delh
          0                 1           6             6    1     3       0.5334685864E-02       6    1    1       0.4321982969E+01      0.8784886921E+01      0.1429868322E+00      0.5334685864E-02
          0                 2           5             6    1     3      -0.4568344066E-03       6    1    1      -0.4345160061E+00      0.8807266257E+00      0.8784886921E+01     -0.4568344066E-03
          0                 3           3             6    1     1      -0.2414584440E-04       6    1    1      -0.2402482845E-01      0.4813748018E-01      0.8807266257E+00     -0.2414584440E-04

    ------------------------------------------------
       NWT REQUIRED            3 OUTER ITERATIONS 
       AND A TOTAL OF         14 INNER ITERATIONS.
    ------------------------------------------------
                                                   Max.-Head-Change                        Max.-Flux-Residual
  Residual-Control   Outer-Iter.   Inner-Iter.     Column Row Layer    Max.-Head-Change    Column Row Layer    Max.-Flux-Residual            L2-New               L2-Old           Solver-Max-Delh
          0                 1           5             6   15     3       0.1832142597E-02       6    1    1       0.9382748425E+00      0.1947784097E+01      0.4813748018E-01      0.1832142597E-02
          0                 2           4             6   15     3      -0.1579578860E-03       6    1    1      -0.9909257619E-01      0.1985945348E+00      0.1947784097E+01     -0.1579578860E-03
          0                 3           2             6   15     3      -0.7565693392E-05       6    3    1      -0.8397656842E-02      0.1708721872E-01      0.1985945348E+00     -0.7565693392E-05

    ------------------------------------------------
       NWT REQUIRED            3 OUTER ITERATIONS 
       AND A TOTAL OF         11 INNER ITERATIONS.
    ------------------------------------------------
                                                   Max.-Head-Change                        Max.-Flux-Residual
  Residual-Control   Outer-Iter.   Inner-Iter.     Column Row Layer    Max.-Head-Change    Column Row Layer    Max.-Flux-Residual            L2-New               L2-Old           Solver-Max-Delh
          0                 1           5             1    1     2      -0.1096211193E-02       1   12    1      -0.6665360029E+00      0.1759118817E+01      0.1708721872E-01     -0.1096211193E-02
          0                 2           4             1    1     2       0.9441778853E-04       1   10    1       0.6679985323E-01      0.1810359539E+00      0.1759118817E+01      0.9441778853E-04

    ------------------------------------------------
       NWT REQUIRED            2 OUTER ITERATIONS 
       AND A TOTAL OF          9 INNER ITERATIONS.
    ------------------------------------------------
                                                   Max.-Head-Change                        Max.-Flux-Residual
  Residual-Control   Outer-Iter.   Inner-Iter.     Column Row Layer    Max.-Head-Change    Column Row Layer    Max.-Flux-Residual            L2-New               L2-Old           Solver-Max-Delh
          0                 1           5             1    1     2      -0.9145722809E-03       2    1    1      -0.4663876216E+00      0.1505365796E+01      0.1810359539E+00     -0.9145722809E-03
          0                 2           4             1    1     2       0.7801942910E-04       2    1    1       0.5188561033E-01      0.1489461584E+00      0.1505365796E+01      0.7801942910E-04

    ------------------------------------------------
       NWT REQUIRED            2 OUTER ITERATIONS 
       AND A TOTAL OF          9 INNER ITERATIONS.
    ------------------------------------------------
                                                   Max.-Head-Change                        Max.-Flux-Residual
  Residual-Control   Outer-Iter.   Inner-Iter.     Column Row Layer    Max.-Head-Change    Column Row Layer    Max.-Flux-Residual            L2-New               L2-Old           Solver-Max-Delh
          0                 1           5             1    1     2      -0.5611267778E-03       6    1    1      -0.3631450718E+00      0.9639017051E+00      0.1489461584E+00     -0.5611267778E-03
          0                 2           4             1    1     2       0.4755687299E-04       6    1    1       0.4347490659E-01      0.1009904320E+00      0.9639017051E+00      0.4755687299E-04

    ------------------------------------------------
       NWT REQUIRED            2 OUTER ITERATIONS 
       AND A TOTAL OF          9 INNER ITERATIONS.
    ------------------------------------------------
                                                   Max.-Head-Change                        Max.-Flux-Residual
  Residual-Control   Outer-Iter.   Inner-Iter.     Column Row Layer    Max.-Head-Change    Column Row Layer    Max.-Flux-Residual            L2-New               L2-Old           Solver-Max-Delh
          0                 1           5             6    3     2      -0.2817461511E-03       6    1    1      -0.2099262222E+00      0.5278670836E+00      0.1009904320E+00     -0.2817461511E-03
          0                 2           3             6    1     1       0.2383373205E-04       6    1    1       0.2270682395E-01      0.5237546586E-01      0.5278670836E+00      0.2383373205E-04

    ------------------------------------------------
       NWT REQUIRED            2 OUTER ITERATIONS 
       AND A TOTAL OF          8 INNER ITERATIONS.
    ------------------------------------------------

 OUTPUT CONTROL FOR STRESS PERIOD     13   TIME STEP     2
    SAVE BUDGET
 UBDSV1 SAVING "         STORAGE" ON UNIT7013 AT TIME STEP    2, STRESS PERIOD  13
 UBDSV2 SAVING "   CONSTANT HEAD" ON UNIT7013 AT TIME STEP    2, STRESS PERIOD  13
 UBDSV1 SAVING "FLOW RIGHT FACE " ON UNIT7013 AT TIME STEP    2, STRESS PERIOD  13
 UBDSV1 SAVING "FLOW FRONT FACE " ON UNIT7013 AT TIME STEP    2, STRESS PERIOD  13
 UBDSV1 SAVING "FLOW LOWER FACE " ON UNIT7013 AT TIME STEP    2, STRESS PERIOD  13
 UBDSV4 SAVING "  STREAM LEAKAGE" ON UNIT7013 AT TIME STEP    2, STRESS PERIOD  13



 
 
 
 
 
 
 
 
 UBDSV3 SAVING "FARM  NET  RECH." ON UNIT7013 AT TIME STEP    2, STRESS PERIOD  13
 UBDSV4 SAVING " GHOST-NODE HEAD" ON UNIT7013 AT TIME STEP    2, STRESS PERIOD  13
1
  VOLUMETRIC BUDGET FOR ENTIRE MODEL AT END OF TIME STEP    2 IN STRESS PERIOD     13
  ------------------------------------------------------------------------------

     CUMULATIVE VOLUMES      L**3       RATES FOR THIS TIME STEP      L**3/T
     ------------------                 ------------------------

           IN:                                      IN:
           ---                                      ---
             STORAGE =       78850.0391               STORAGE =           0.0000
       CONSTANT HEAD =           0.0000         CONSTANT HEAD =           0.0000
      STREAM LEAKAGE =      447860.1562        STREAM LEAKAGE =         746.0803
          FARM WELLS =           0.0000            FARM WELLS =           0.0000
    FARM  NET  RECH. =      215321.4844      FARM  NET  RECH. =         811.7328
     GHOST-NODE HEAD =     4212920.0000       GHOST-NODE HEAD =        2599.5994

            TOTAL IN =     4954951.5000              TOTAL IN =        4157.4126

          OUT:                                     OUT:
          ----                                     ----
             STORAGE =     4055903.7500               STORAGE =         731.8179
       CONSTANT HEAD =           0.0000         CONSTANT HEAD =           0.0000
      STREAM LEAKAGE =           0.0000        STREAM LEAKAGE =           0.0000
          FARM WELLS =       45434.2578            FARM WELLS =           0.0000
    FARM  NET  RECH. =           0.0000      FARM  NET  RECH. =           0.0000
     GHOST-NODE HEAD =      853609.8750       GHOST-NODE HEAD =        3425.5684

           TOTAL OUT =     4954948.0000             TOTAL OUT =        4157.3862

            IN - OUT =           3.5000              IN - OUT =       2.6367E-02

 PERCENT DISCREPANCY =           0.00     PERCENT DISCREPANCY =           0.00






          TIME SUMMARY AT END OF TIME STEP     2 IN STRESS PERIOD     13
                    SECONDS     MINUTES      HOURS       DAYS        YEARS
                    -----------------------------------------------------------
   TIME STEP LENGTH 1.31414E+06  21902.      365.04      15.210     4.16427E-02
 STRESS PERIOD TIME 2.62829E+06  43805.      730.08      30.420     8.32854E-02
         TOTAL TIME 3.41677E+07 5.69462E+05  9491.0      395.46      1.0827    
1
1
  FLUX ACROSS PARENT-CHILD INTERFACE AT TIME STEP  2 IN STRESS PERIOD   13
  ------------------------------------------------------------------------
 G-N FLUX        PARENT        CHILD         DIFFERENCE      % DIFFERENCE
  RATE IN:      2.5999E+03    2.5996E+03     2.8979E-01        0.0111
 RATE OUT:      3.4257E+03    3.4256E+03     1.6333E-01        0.0048
1
                            STRESS PERIOD NO.     14, LENGTH =   30.42000    
                            -----------------------------------------------

                              NUMBER OF TIME STEPS =     2

                               MULTIPLIER FOR DELT =     1.000

                            INITIAL TIME STEP SIZE =   15.21000    

 REUSING STREAM SEGMENT DATA FROM LAST STRESS PERIOD

 Parameter:  WELLS1
 WELL NO. LAYER    ROW    COL  F-WELL ID    FARM ID         QMAX         QMAXRESET       LGRGRID         
 --------------------------------------------------------------------------------------------------------
       1      1      2      2          5          2      2.0000E+03              0              0
       2      1      5      5          6          2      1.0000E+03              0              0

 NUMBER OF ACTIVE FARM WELLS:        2

 FARM-ID  NUMBER OF WELLS PER FARM  TOTAL MAX.CAPACITY PER FARM
       1                         0                       0.0000
       2                         2                    3000.0000
       3                         0                       0.0000
       4                         0                       0.0000
       5                         0                       0.0000
       6                         0                       0.0000
       7                         0                       0.0000
       8                         0                       0.0000

Transpiratory and Evaporative Fractions of Crop Consumptive Use
    % Transpiration % Evap. for Precip. % Evap. for Irrig.
    3          0.845          0.155          0.155
    5          0.783          0.217          0.000

FRACTIONS OF IN-EFFICIENT LOSSES TO SW-RUNOFF FROM 
     PRECIPITATION:  IRRIGATION:
    3          0.600          0.500
    5          0.850          0.000
 
 SOLVING FOR HEAD 
                                                   Max.-Head-Change                        Max.-Flux-Residual
  Residual-Control   Outer-Iter.   Inner-Iter.     Column Row Layer    Max.-Head-Change    Column Row Layer    Max.-Flux-Residual            L2-New               L2-Old           Solver-Max-Delh
          0                 1           9             1    3     1       0.2986316644E+00       6    1    1       0.1282119647E+03      0.3759748988E+03      0.5237546586E-01      0.2986316644E+00
          0                 2           7             1    3     1      -0.2595949759E-01       6    1    1      -0.1287262912E+02      0.3730668358E+02      0.3759748988E+03     -0.2595949759E-01
          0                 3           5             1    3     1      -0.1296621126E-02       6    1    1      -0.6310326281E+00      0.1882488506E+01      0.3730668358E+02     -0.1296621126E-02
          0                 4           4             1    2     1      -0.6632740716E-04       6    1    1      -0.3830142954E-01      0.1004892460E+00      0.1882488506E+01     -0.6632740716E-04

    ------------------------------------------------
       NWT REQUIRED            4 OUTER ITERATIONS 
       AND A TOTAL OF         25 INNER ITERATIONS.
    ------------------------------------------------
                                                   Max.-Head-Change                        Max.-Flux-Residual
  Residual-Control   Outer-Iter.   Inner-Iter.     Column Row Layer    Max.-Head-Change    Column Row Layer    Max.-Flux-Residual            L2-New               L2-Old           Solver-Max-Delh
          0                 1           8             1    1     2       0.9654257384E-01       6    1    1       0.6852791014E+02      0.1741346123E+03      0.1004892460E+00      0.9654257384E-01
          0                 2           7             1    1     2      -0.8338638392E-02       6    1    1      -0.6899178827E+01      0.1748824279E+02      0.1741346123E+03     -0.8338638392E-02
          0                 3           5             1    1     2      -0.4178006019E-03       6    1    1      -0.3431465974E+00      0.8775364396E+00      0.1748824279E+02     -0.4178006019E-03
          0                 4           3             2    1     1      -0.2166518644E-04       1   10    1      -0.1569330017E-01      0.4852015348E-01      0.8775364396E+00     -0.2166518644E-04

    ------------------------------------------------
       NWT REQUIRED            4 OUTER ITERATIONS 
       AND A TOTAL OF         23 INNER ITERATIONS.
    ------------------------------------------------
                                                   Max.-Head-Change                        Max.-Flux-Residual
  Residual-Control   Outer-Iter.   Inner-Iter.     Column Row Layer    Max.-Head-Change    Column Row Layer    Max.-Flux-Residual            L2-New               L2-Old           Solver-Max-Delh
          0                 1           8             1    1     2       0.4596690785E-01       6    1    1       0.3454453452E+02      0.8647426009E+02      0.4852015348E-01      0.4596690785E-01
          0                 2           6             1    1     2      -0.3969509166E-02       6    1    1      -0.3475916849E+01      0.8653121579E+01      0.8647426009E+02     -0.3969509166E-02
          0                 3           4             1    1     2      -0.1990108220E-03       6    1    1      -0.1700284776E+00      0.4331264474E+00      0.8653121579E+01     -0.1990108220E-03
          0                 4           3             3    1     1      -0.1159989023E-04       1   11    1      -0.7848577690E-02      0.3043141926E-01      0.4331264474E+00     -0.1159989023E-04

    ------------------------------------------------
       NWT REQUIRED            4 OUTER ITERATIONS 
       AND A TOTAL OF         21 INNER ITERATIONS.
    ------------------------------------------------
                                                   Max.-Head-Change                        Max.-Flux-Residual
  Residual-Control   Outer-Iter.   Inner-Iter.     Column Row Layer    Max.-Head-Change    Column Row Layer    Max.-Flux-Residual            L2-New               L2-Old           Solver-Max-Delh
          0                 1           7             6    1     2       0.1892523420E-01       6    1    1       0.1527824748E+02      0.3659054526E+02      0.3043141926E-01      0.1892523420E-01
          0                 2           6             6    1     2      -0.1635789067E-02       6    1    1      -0.1535439415E+01      0.3666151631E+01      0.3659054526E+02     -0.1635789067E-02
          0                 3           4             6    1     2      -0.8174816443E-04       6    1    1      -0.7423685788E-01      0.1845851984E+00      0.3666151631E+01     -0.8174816443E-04

    ------------------------------------------------
       NWT REQUIRED            3 OUTER ITERATIONS 
       AND A TOTAL OF         17 INNER ITERATIONS.
    ------------------------------------------------
                                                   Max.-Head-Change                        Max.-Flux-Residual
  Residual-Control   Outer-Iter.   Inner-Iter.     Column Row Layer    Max.-Head-Change    Column Row Layer    Max.-Flux-Residual            L2-New               L2-Old           Solver-Max-Delh
          0                 1           7             6    2     2       0.7003900718E-02       6    1    1       0.5675006571E+01      0.1235594263E+02      0.1845851984E+00      0.7003900718E-02
          0                 2           5             6    2     2      -0.6058818483E-03       6    1    1      -0.5711833269E+00      0.1249205982E+01      0.1235594263E+02     -0.6058818483E-03
          0                 3           3             6    2     2      -0.2986996688E-04       6    2    1      -0.2115456766E-01      0.5631131495E-01      0.1249205982E+01     -0.2986996688E-04

    ------------------------------------------------
       NWT REQUIRED            3 OUTER ITERATIONS 
       AND A TOTAL OF         15 INNER ITERATIONS.
    ------------------------------------------------
                                                   Max.-Head-Change                        Max.-Flux-Residual
  Residual-Control   Outer-Iter.   Inner-Iter.     Column Row Layer    Max.-Head-Change    Column Row Layer    Max.-Flux-Residual            L2-New               L2-Old           Solver-Max-Delh
          0                 1           5             6   15     3       0.2158565656E-02       6    1    1       0.1467575610E+01      0.3564804281E+01      0.5631131495E-01      0.2158565656E-02
          0                 2           4             6   15     3      -0.1860676120E-03       6    1    1      -0.1494890670E+00      0.3594535219E+00      0.3564804281E+01     -0.1860676120E-03
          0                 3           2             6    1     1      -0.1156065828E-04       6    1    1      -0.1470832212E-01      0.3083749449E-01      0.3594535219E+00     -0.1156065828E-04

    ------------------------------------------------
       NWT REQUIRED            3 OUTER ITERATIONS 
       AND A TOTAL OF         11 INNER ITERATIONS.
    ------------------------------------------------
                                                   Max.-Head-Change                        Max.-Flux-Residual
  Residual-Control   Outer-Iter.   Inner-Iter.     Column Row Layer    Max.-Head-Change    Column Row Layer    Max.-Flux-Residual            L2-New               L2-Old           Solver-Max-Delh
          0                 1           5             1   11     1      -0.1194675679E-02       1   10    1      -0.9480850140E+00      0.2176898788E+01      0.3083749449E-01     -0.1194675679E-02
          0                 2           4             1    1     1       0.1030874771E-03       1   12    1       0.9491333598E-01      0.2175204901E+00      0.2176898788E+01      0.1030874771E-03
          0                 3           2             5    1     1       0.7630149044E-05       1   10    1       0.8725521271E-02      0.1884569036E-01      0.2175204901E+00      0.7630149044E-05

    ------------------------------------------------
       NWT REQUIRED            3 OUTER ITERATIONS 
       AND A TOTAL OF         11 INNER ITERATIONS.
    ------------------------------------------------
                                                   Max.-Head-Change                        Max.-Flux-Residual
  Residual-Control   Outer-Iter.   Inner-Iter.     Column Row Layer    Max.-Head-Change    Column Row Layer    Max.-Flux-Residual            L2-New               L2-Old           Solver-Max-Delh
          0                 1           5             1    1     2      -0.1045096356E-02       3    1    1      -0.5776443190E+00      0.1702071995E+01      0.1884569036E-01     -0.1045096356E-02
          0                 2           4             1    1     2       0.8825293856E-04       1   12    1       0.5924151023E-01      0.1646415869E+00      0.1702071995E+01      0.8825293856E-04

    ------------------------------------------------
       NWT REQUIRED            2 OUTER ITERATIONS 
       AND A TOTAL OF          9 INNER ITERATIONS.
    ------------------------------------------------
                                                   Max.-Head-Change                        Max.-Flux-Residual
  Residual-Control   Outer-Iter.   Inner-Iter.     Column Row Layer    Max.-Head-Change    Column Row Layer    Max.-Flux-Residual            L2-New               L2-Old           Solver-Max-Delh
          0                 1           5             1    1     1      -0.6579505808E-03       6    1    1      -0.3667066114E+00      0.1108385011E+01      0.1646415869E+00     -0.6579505808E-03
          0                 2           4             1    1     2       0.5585146360E-04       6    1    1       0.3967050917E-01      0.1080594776E+00      0.1108385011E+01      0.5585146360E-04

    ------------------------------------------------
       NWT REQUIRED            2 OUTER ITERATIONS 
       AND A TOTAL OF          9 INNER ITERATIONS.
    ------------------------------------------------
                                                   Max.-Head-Change                        Max.-Flux-Residual
  Residual-Control   Outer-Iter.   Inner-Iter.     Column Row Layer    Max.-Head-Change    Column Row Layer    Max.-Flux-Residual            L2-New               L2-Old           Solver-Max-Delh
          0                 1           5             6    4     2      -0.3435367193E-03       6    1    1      -0.2360922652E+00      0.6303601135E+00      0.1080594776E+00     -0.3435367193E-03
          0                 2           3             2    1     1       0.3087992361E-04       6    1    1       0.2805707190E-01      0.7058290519E-01      0.6303601135E+00      0.3087992361E-04

    ------------------------------------------------
       NWT REQUIRED            2 OUTER ITERATIONS 
       AND A TOTAL OF          8 INNER ITERATIONS.
    ------------------------------------------------

 OUTPUT CONTROL FOR STRESS PERIOD     14   TIME STEP     1
    SAVE BUDGET
 UBDSV1 SAVING "         STORAGE" ON UNIT7013 AT TIME STEP    1, STRESS PERIOD  14
 UBDSV2 SAVING "   CONSTANT HEAD" ON UNIT7013 AT TIME STEP    1, STRESS PERIOD  14
 UBDSV1 SAVING "FLOW RIGHT FACE " ON UNIT7013 AT TIME STEP    1, STRESS PERIOD  14
 UBDSV1 SAVING "FLOW FRONT FACE " ON UNIT7013 AT TIME STEP    1, STRESS PERIOD  14
 UBDSV1 SAVING "FLOW LOWER FACE " ON UNIT7013 AT TIME STEP    1, STRESS PERIOD  14
 UBDSV4 SAVING "  STREAM LEAKAGE" ON UNIT7013 AT TIME STEP    1, STRESS PERIOD  14



 
 
 
 
 
 
 
 
 UBDSV3 SAVING "FARM  NET  RECH." ON UNIT7013 AT TIME STEP    1, STRESS PERIOD  14
 UBDSV4 SAVING " GHOST-NODE HEAD" ON UNIT7013 AT TIME STEP    1, STRESS PERIOD  14
1
  FLUX ACROSS PARENT-CHILD INTERFACE AT TIME STEP  1 IN STRESS PERIOD   14
  ------------------------------------------------------------------------
 G-N FLUX        PARENT        CHILD         DIFFERENCE      % DIFFERENCE
  RATE IN:      2.7115E+03    2.7111E+03     3.4302E-01        0.0127
 RATE OUT:      3.5689E+03    3.5685E+03     4.2798E-01        0.0120
 
 SOLVING FOR HEAD 
                                                   Max.-Head-Change                        Max.-Flux-Residual
  Residual-Control   Outer-Iter.   Inner-Iter.     Column Row Layer    Max.-Head-Change    Column Row Layer    Max.-Flux-Residual            L2-New               L2-Old           Solver-Max-Delh
          0                 1           9             1    3     1       0.2390218119E+00       6    1    1       0.1276005538E+03      0.3250883538E+03      0.7058290519E-01      0.2390218119E+00
          0                 2           7             1    3     1      -0.2073137934E-01       6    1    1      -0.1282954512E+02      0.3248259912E+02      0.3250883538E+03     -0.2073137934E-01
          0                 3           5             1    3     1      -0.1035182725E-02       6    1    1      -0.6311400447E+00      0.1622159889E+01      0.3248259912E+02     -0.1035182725E-02
          0                 4           4             1    4     4      -0.5505292856E-04       6    1    1      -0.3074090549E-01      0.8684604496E-01      0.1622159889E+01     -0.5505292856E-04

    ------------------------------------------------
       NWT REQUIRED            4 OUTER ITERATIONS 
       AND A TOTAL OF         25 INNER ITERATIONS.
    ------------------------------------------------
                                                   Max.-Head-Change                        Max.-Flux-Residual
  Residual-Control   Outer-Iter.   Inner-Iter.     Column Row Layer    Max.-Head-Change    Column Row Layer    Max.-Flux-Residual            L2-New               L2-Old           Solver-Max-Delh
          0                 1           8             1    1     2       0.8762230838E-01       6    1    1       0.6518796049E+02      0.1528884280E+03      0.8684604496E-01      0.8762230838E-01
          0                 2           7             1    1     2      -0.7567680724E-02       6    1    1      -0.6560279913E+01      0.1535205752E+02      0.1528884280E+03     -0.7567680724E-02
          0                 3           5             1    1     2      -0.3778137153E-03       6    1    1      -0.3274971081E+00      0.7651101243E+00      0.1535205752E+02     -0.3778137153E-03
          0                 4           3             2    1     1      -0.2157309461E-04       2    1    1      -0.1481919771E-01      0.4261447187E-01      0.7651101243E+00     -0.2157309461E-04

    ------------------------------------------------
       NWT REQUIRED            4 OUTER ITERATIONS 
       AND A TOTAL OF         23 INNER ITERATIONS.
    ------------------------------------------------
                                                   Max.-Head-Change                        Max.-Flux-Residual
  Residual-Control   Outer-Iter.   Inner-Iter.     Column Row Layer    Max.-Head-Change    Column Row Layer    Max.-Flux-Residual            L2-New               L2-Old           Solver-Max-Delh
          0                 1           8             1    1     2       0.4063948846E-01       6    1    1       0.3192109753E+02      0.7395393015E+02      0.4261447187E-01      0.4063948846E-01
          0                 2           6             1    1     2      -0.3509324679E-02       6    1    1      -0.3210159773E+01      0.7408000797E+01      0.7395393015E+02     -0.3509324679E-02
          0                 3           4             1    1     2      -0.1760167501E-03       6    1    1      -0.1620188581E+00      0.3707592358E+00      0.7408000797E+01     -0.1760167501E-03
          0                 4           3             3    5     3      -0.1005043330E-04       1   12    1      -0.9338148520E-02      0.2600415078E-01      0.3707592358E+00     -0.1005043330E-04

    ------------------------------------------------
       NWT REQUIRED            4 OUTER ITERATIONS 
       AND A TOTAL OF         21 INNER ITERATIONS.
    ------------------------------------------------
                                                   Max.-Head-Change                        Max.-Flux-Residual
  Residual-Control   Outer-Iter.   Inner-Iter.     Column Row Layer    Max.-Head-Change    Column Row Layer    Max.-Flux-Residual            L2-New               L2-Old           Solver-Max-Delh
          0                 1           7             6    1     2       0.1687575835E-01       6    1    1       0.1367445441E+02      0.3078776294E+02      0.2600415078E-01      0.1687575835E-01
          0                 2           6             6    1     2      -0.1458349098E-02       6    1    1      -0.1373321229E+01      0.3085060648E+01      0.3078776294E+02     -0.1458349098E-02
          0                 3           4             6    1     1      -0.7338666737E-04       6    1    1      -0.7143638155E-01      0.1535020922E+00      0.3085060648E+01     -0.7338666737E-04

    ------------------------------------------------
       NWT REQUIRED            3 OUTER ITERATIONS 
       AND A TOTAL OF         17 INNER ITERATIONS.
    ------------------------------------------------
                                                   Max.-Head-Change                        Max.-Flux-Residual
  Residual-Control   Outer-Iter.   Inner-Iter.     Column Row Layer    Max.-Head-Change    Column Row Layer    Max.-Flux-Residual            L2-New               L2-Old           Solver-Max-Delh
          0                 1           7             6    2     2       0.5890476286E-02       6    1    1       0.4815525427E+01      0.9953935221E+01      0.1535020922E+00      0.5890476286E-02
          0                 2           5             6    2     2      -0.5092079880E-03       6    1    1      -0.4845838866E+00      0.1003954758E+01      0.9953935221E+01     -0.5092079880E-03
          0                 3           3             6    2     3      -0.2582083244E-04       6    1    1      -0.1995316759E-01      0.5125261723E-01      0.1003954758E+01     -0.2582083244E-04

    ------------------------------------------------
       NWT REQUIRED            3 OUTER ITERATIONS 
       AND A TOTAL OF         15 INNER ITERATIONS.
    ------------------------------------------------
                                                   Max.-Head-Change                        Max.-Flux-Residual
  Residual-Control   Outer-Iter.   Inner-Iter.     Column Row Layer    Max.-Head-Change    Column Row Layer    Max.-Flux-Residual            L2-New               L2-Old           Solver-Max-Delh
          0                 1           5             6   15     3       0.1927642995E-02       6    1    1       0.1118524652E+01      0.2518013787E+01      0.5125261723E-01      0.1927642995E-02
          0                 2           4             6   15     3      -0.1663008551E-03       6    1    1      -0.1191229821E+00      0.2582912941E+00      0.2518013787E+01     -0.1663008551E-03
          0                 3           2             6   15     3      -0.7827127964E-05       3    1    1       0.9924064390E-02      0.2050513901E-01      0.2582912941E+00     -0.7827127964E-05

    ------------------------------------------------
       NWT REQUIRED            3 OUTER ITERATIONS 
       AND A TOTAL OF         11 INNER ITERATIONS.
    ------------------------------------------------
                                                   Max.-Head-Change                        Max.-Flux-Residual
  Residual-Control   Outer-Iter.   Inner-Iter.     Column Row Layer    Max.-Head-Change    Column Row Layer    Max.-Flux-Residual            L2-New               L2-Old           Solver-Max-Delh
          0                 1           5             1    1     2      -0.1168904952E-02       1   12    1      -0.7178086685E+00      0.1848546584E+01      0.2050513901E-01     -0.1168904952E-02
          0                 2           4             1    1     2       0.9939045415E-04       1   12    1       0.7298634911E-01      0.1790166448E+00      0.1848546584E+01      0.9939045415E-04

    ------------------------------------------------
       NWT REQUIRED            2 OUTER ITERATIONS 
       AND A TOTAL OF          9 INNER ITERATIONS.
    ------------------------------------------------
                                                   Max.-Head-Change                        Max.-Flux-Residual
  Residual-Control   Outer-Iter.   Inner-Iter.     Column Row Layer    Max.-Head-Change    Column Row Layer    Max.-Flux-Residual            L2-New               L2-Old           Solver-Max-Delh
          0                 1           5             1    1     2      -0.9742222699E-03       3    1    1      -0.5077971086E+00      0.1561101781E+01      0.1790166448E+00     -0.9742222699E-03
          0                 2           4             1    1     2       0.8358849527E-04       1    1    1       0.5234812154E-01      0.1594054886E+00      0.1561101781E+01      0.8358849527E-04

    ------------------------------------------------
       NWT REQUIRED            2 OUTER ITERATIONS 
       AND A TOTAL OF          9 INNER ITERATIONS.
    ------------------------------------------------
                                                   Max.-Head-Change                        Max.-Flux-Residual
  Residual-Control   Outer-Iter.   Inner-Iter.     Column Row Layer    Max.-Head-Change    Column Row Layer    Max.-Flux-Residual            L2-New               L2-Old           Solver-Max-Delh
          0                 1           5             1    1     2      -0.5894220328E-03       6    1    1      -0.3693790276E+00      0.1013786692E+01      0.1594054886E+00     -0.5894220328E-03
          0                 2           4             1    1     1       0.5284188482E-04       6    1    1       0.3862573294E-01      0.1043717805E+00      0.1013786692E+01      0.5284188482E-04

    ------------------------------------------------
       NWT REQUIRED            2 OUTER ITERATIONS 
       AND A TOTAL OF          9 INNER ITERATIONS.
    ------------------------------------------------
                                                   Max.-Head-Change                        Max.-Flux-Residual
  Residual-Control   Outer-Iter.   Inner-Iter.     Column Row Layer    Max.-Head-Change    Column Row Layer    Max.-Flux-Residual            L2-New               L2-Old           Solver-Max-Delh
          0                 1           5             6    3     2      -0.3085941911E-03       6    1    1      -0.2417551695E+00      0.5632249552E+00      0.1043717805E+00     -0.3085941911E-03
          0                 2           3             6    1     1       0.2748434492E-04       6    1    1       0.3051750053E-01      0.5969643326E-01      0.5632249552E+00      0.2748434492E-04

    ------------------------------------------------
       NWT REQUIRED            2 OUTER ITERATIONS 
       AND A TOTAL OF          8 INNER ITERATIONS.
    ------------------------------------------------

 OUTPUT CONTROL FOR STRESS PERIOD     14   TIME STEP     2
    SAVE BUDGET
 UBDSV1 SAVING "         STORAGE" ON UNIT7013 AT TIME STEP    2, STRESS PERIOD  14
 UBDSV2 SAVING "   CONSTANT HEAD" ON UNIT7013 AT TIME STEP    2, STRESS PERIOD  14
 UBDSV1 SAVING "FLOW RIGHT FACE " ON UNIT7013 AT TIME STEP    2, STRESS PERIOD  14
 UBDSV1 SAVING "FLOW FRONT FACE " ON UNIT7013 AT TIME STEP    2, STRESS PERIOD  14
 UBDSV1 SAVING "FLOW LOWER FACE " ON UNIT7013 AT TIME STEP    2, STRESS PERIOD  14
 UBDSV4 SAVING "  STREAM LEAKAGE" ON UNIT7013 AT TIME STEP    2, STRESS PERIOD  14



 
 
 
 
 
 
 
 
 UBDSV3 SAVING "FARM  NET  RECH." ON UNIT7013 AT TIME STEP    2, STRESS PERIOD  14
 UBDSV4 SAVING " GHOST-NODE HEAD" ON UNIT7013 AT TIME STEP    2, STRESS PERIOD  14
1
  VOLUMETRIC BUDGET FOR ENTIRE MODEL AT END OF TIME STEP    2 IN STRESS PERIOD     14
  ------------------------------------------------------------------------------

     CUMULATIVE VOLUMES      L**3       RATES FOR THIS TIME STEP      L**3/T
     ------------------                 ------------------------

           IN:                                      IN:
           ---                                      ---
             STORAGE =       78850.0391               STORAGE =           0.0000
       CONSTANT HEAD =           0.0000         CONSTANT HEAD =           0.0000
      STREAM LEAKAGE =      460243.1250        STREAM LEAKAGE =         306.8536
          FARM WELLS =           0.0000            FARM WELLS =           0.0000
    FARM  NET  RECH. =      254341.6719      FARM  NET  RECH. =        1282.3622
     GHOST-NODE HEAD =     4297237.5000       GHOST-NODE HEAD =        2832.3987

            TOTAL IN =     5090672.5000              TOTAL IN =        4421.6143

          OUT:                                     OUT:
          ----                                     ----
             STORAGE =     4081922.0000               STORAGE =         777.6140
       CONSTANT HEAD =           0.0000         CONSTANT HEAD =           0.0000
      STREAM LEAKAGE =           0.0000        STREAM LEAKAGE =           0.0000
          FARM WELLS =       45434.2578            FARM WELLS =           0.0000
    FARM  NET  RECH. =           0.0000      FARM  NET  RECH. =           0.0000
     GHOST-NODE HEAD =      963311.4375       GHOST-NODE HEAD =        3643.9915

           TOTAL OUT =     5090667.5000             TOTAL OUT =        4421.6055

            IN - OUT =           5.0000              IN - OUT =       8.7891E-03

 PERCENT DISCREPANCY =           0.00     PERCENT DISCREPANCY =           0.00






          TIME SUMMARY AT END OF TIME STEP     2 IN STRESS PERIOD     14
                    SECONDS     MINUTES      HOURS       DAYS        YEARS
                    -----------------------------------------------------------
   TIME STEP LENGTH 1.31414E+06  21902.      365.04      15.210     4.16427E-02
 STRESS PERIOD TIME 2.62829E+06  43805.      730.08      30.420     8.32854E-02
         TOTAL TIME 3.67960E+07 6.13267E+05  10221.      425.88      1.1660    
1
1
  FLUX ACROSS PARENT-CHILD INTERFACE AT TIME STEP  2 IN STRESS PERIOD   14
  ------------------------------------------------------------------------
 G-N FLUX        PARENT        CHILD         DIFFERENCE      % DIFFERENCE
  RATE IN:      2.8327E+03    2.8324E+03     3.1372E-01        0.0111
 RATE OUT:      3.6442E+03    3.6440E+03     2.4463E-01        0.0067
1
                            STRESS PERIOD NO.     15, LENGTH =   30.42000    
                            -----------------------------------------------

                              NUMBER OF TIME STEPS =     2

                               MULTIPLIER FOR DELT =     1.000

                            INITIAL TIME STEP SIZE =   15.21000    

 REUSING STREAM SEGMENT DATA FROM LAST STRESS PERIOD

 Parameter:  WELLS1
 WELL NO. LAYER    ROW    COL  F-WELL ID    FARM ID         QMAX         QMAXRESET       LGRGRID         
 --------------------------------------------------------------------------------------------------------
       1      1      2      2          5          2      2.0000E+03              0              0
       2      1      5      5          6          2      1.0000E+03              0              0

 NUMBER OF ACTIVE FARM WELLS:        2

 FARM-ID  NUMBER OF WELLS PER FARM  TOTAL MAX.CAPACITY PER FARM
       1                         0                       0.0000
       2                         2                    3000.0000
       3                         0                       0.0000
       4                         0                       0.0000
       5                         0                       0.0000
       6                         0                       0.0000
       7                         0                       0.0000
       8                         0                       0.0000

Transpiratory and Evaporative Fractions of Crop Consumptive Use
    % Transpiration % Evap. for Precip. % Evap. for Irrig.
    3          0.000          1.000          1.000
    5          0.835          0.165          0.000

FRACTIONS OF IN-EFFICIENT LOSSES TO SW-RUNOFF FROM 
     PRECIPITATION:  IRRIGATION:
    3          0.600          0.500
    5          0.500          0.000
 
 SOLVING FOR HEAD 
                                                   Max.-Head-Change                        Max.-Flux-Residual
  Residual-Control   Outer-Iter.   Inner-Iter.     Column Row Layer    Max.-Head-Change    Column Row Layer    Max.-Flux-Residual            L2-New               L2-Old           Solver-Max-Delh
          0                 1           8             1    2     4       0.1735432275E+00       6    1    1       0.4485123279E+02      0.1256058131E+03      0.5969643326E-01      0.1735432275E+00
          0                 2           7             1    2     4      -0.1498464077E-01       6    1    1      -0.4506149729E+01      0.1248208392E+02      0.1256058131E+03     -0.1498464077E-01
          0                 3           5             1    2     4      -0.7501589333E-03       6    1    1      -0.2302939247E+00      0.6336236750E+00      0.1248208392E+02     -0.7501589333E-03
          0                 4           3             1    3     4      -0.3865189813E-04       2    1    1      -0.1208108652E-01      0.3103353522E-01      0.6336236750E+00     -0.3865189813E-04

    ------------------------------------------------
       NWT REQUIRED            4 OUTER ITERATIONS 
       AND A TOTAL OF         23 INNER ITERATIONS.
    ------------------------------------------------
                                                   Max.-Head-Change                        Max.-Flux-Residual
  Residual-Control   Outer-Iter.   Inner-Iter.     Column Row Layer    Max.-Head-Change    Column Row Layer    Max.-Flux-Residual            L2-New               L2-Old           Solver-Max-Delh
          0                 1           7             1    1     3       0.5194007370E-01       6    1    1       0.2215404884E+02      0.6489828157E+02      0.3103353522E-01      0.5194007370E-01
          0                 2           6             1    1     3      -0.4485087493E-02       6    1    1      -0.2231874100E+01      0.6304386424E+01      0.6489828157E+02     -0.4485087493E-02
          0                 3           4             1    1     3      -0.2231548508E-03       6   14    1       0.1164033926E+00      0.3302851332E+00      0.6304386424E+01     -0.2231548508E-03
          0                 4           2             6    1     1      -0.1227078585E-04       6   15    1       0.1452863959E-01      0.3380002904E-01      0.3302851332E+00     -0.1227078585E-04

    ------------------------------------------------
       NWT REQUIRED            4 OUTER ITERATIONS 
       AND A TOTAL OF         19 INNER ITERATIONS.
    ------------------------------------------------
                                                   Max.-Head-Change                        Max.-Flux-Residual
  Residual-Control   Outer-Iter.   Inner-Iter.     Column Row Layer    Max.-Head-Change    Column Row Layer    Max.-Flux-Residual            L2-New               L2-Old           Solver-Max-Delh
          0                 1           7             6    1     3       0.2378367850E-01       6   15    1      -0.1196719737E+02      0.2766181850E+02      0.3380002904E-01      0.2378367850E-01
          0                 2           6             6    1     3      -0.2052776469E-02       6   15    1       0.1201212510E+01      0.2761706326E+01      0.2766181850E+02     -0.2052776469E-02
          0                 3           4             6    1     3      -0.1026011245E-03       6   15    1       0.5703449706E-01      0.1403750034E+00      0.2761706326E+01     -0.1026011245E-03
          0                 4           1             6    1     3      -0.4498036525E-05       6    3    1      -0.7865359017E-02      0.1681871026E-01      0.1403750034E+00     -0.4498036525E-05

    ------------------------------------------------
       NWT REQUIRED            4 OUTER ITERATIONS 
       AND A TOTAL OF         18 INNER ITERATIONS.
    ------------------------------------------------
                                                   Max.-Head-Change                        Max.-Flux-Residual
  Residual-Control   Outer-Iter.   Inner-Iter.     Column Row Layer    Max.-Head-Change    Column Row Layer    Max.-Flux-Residual            L2-New               L2-Old           Solver-Max-Delh
          0                 1           6             6    1     4       0.1003063841E-01       6   15    1      -0.4914827184E+01      0.1139089116E+02      0.1681871026E-01      0.1003063841E-01
          0                 2           5             6    1     4      -0.8635995296E-03       6   15    1       0.4736146358E+00      0.1130458569E+01      0.1139089116E+02     -0.8635995296E-03
          0                 3           3             6    1     4      -0.4349139005E-04       6   15    1       0.3083508837E-01      0.6342406489E-01      0.1130458569E+01     -0.4349139005E-04

    ------------------------------------------------
       NWT REQUIRED            3 OUTER ITERATIONS 
       AND A TOTAL OF         14 INNER ITERATIONS.
    ------------------------------------------------
                                                   Max.-Head-Change                        Max.-Flux-Residual
  Residual-Control   Outer-Iter.   Inner-Iter.     Column Row Layer    Max.-Head-Change    Column Row Layer    Max.-Flux-Residual            L2-New               L2-Old           Solver-Max-Delh
          0                 1           6             6    1     4       0.3596645638E-02       6   15    1      -0.1638298588E+01      0.4414766237E+01      0.6342406489E-01      0.3596645638E-02
          0                 2           4             6    1     4      -0.3088658312E-03       6   15    1       0.1619220683E+00      0.4404796832E+00      0.4414766237E+01     -0.3088658312E-03
          0                 3           3             6    4     3      -0.1640733925E-04       6    1    1      -0.1077647367E-01      0.2958970129E-01      0.4404796832E+00     -0.1640733925E-04

    ------------------------------------------------
       NWT REQUIRED            3 OUTER ITERATIONS 
       AND A TOTAL OF         13 INNER ITERATIONS.
    ------------------------------------------------
                                                   Max.-Head-Change                        Max.-Flux-Residual
  Residual-Control   Outer-Iter.   Inner-Iter.     Column Row Layer    Max.-Head-Change    Column Row Layer    Max.-Flux-Residual            L2-New               L2-Old           Solver-Max-Delh
          0                 1           5             6   15     4       0.1255111232E-02       6    2    1       0.4697446926E+00      0.1663348505E+01      0.2958970129E-01      0.1255111232E-02
          0                 2           4             6   15     4      -0.1081608289E-03       6    2    1      -0.4831030720E-01      0.1658104071E+00      0.1663348505E+01     -0.1081608289E-03
          0                 3           1             6   15     4      -0.4833760492E-05       1   10    1      -0.7967608632E-02      0.1290728874E-01      0.1658104071E+00     -0.4833760492E-05

    ------------------------------------------------
       NWT REQUIRED            3 OUTER ITERATIONS 
       AND A TOTAL OF         10 INNER ITERATIONS.
    ------------------------------------------------
                                                   Max.-Head-Change                        Max.-Flux-Residual
  Residual-Control   Outer-Iter.   Inner-Iter.     Column Row Layer    Max.-Head-Change    Column Row Layer    Max.-Flux-Residual            L2-New               L2-Old           Solver-Max-Delh
          0                 1           4             1    1     3      -0.7259359647E-03       3    1    1      -0.2941893698E+00      0.7513129388E+00      0.1290728874E-01     -0.7259359647E-03
          0                 2           3             1    1     3       0.5708366157E-04       3    1    1       0.3451236244E-01      0.8004697227E-01      0.7513129388E+00      0.5708366157E-04

    ------------------------------------------------
       NWT REQUIRED            2 OUTER ITERATIONS 
       AND A TOTAL OF          7 INNER ITERATIONS.
    ------------------------------------------------
                                                   Max.-Head-Change                        Max.-Flux-Residual
  Residual-Control   Outer-Iter.   Inner-Iter.     Column Row Layer    Max.-Head-Change    Column Row Layer    Max.-Flux-Residual            L2-New               L2-Old           Solver-Max-Delh
          0                 1           5             1    1     3      -0.4944836293E-03       2    1    1      -0.1461676011E+00      0.4752789003E+00      0.8004697227E-01     -0.4944836293E-03
          0                 2           3             1    1     3       0.4169377553E-04       6   15    1      -0.1642360404E-01      0.4887600578E-01      0.4752789003E+00      0.4169377553E-04

    ------------------------------------------------
       NWT REQUIRED            2 OUTER ITERATIONS 
       AND A TOTAL OF          8 INNER ITERATIONS.
    ------------------------------------------------
                                                   Max.-Head-Change                        Max.-Flux-Residual
  Residual-Control   Outer-Iter.   Inner-Iter.     Column Row Layer    Max.-Head-Change    Column Row Layer    Max.-Flux-Residual            L2-New               L2-Old           Solver-Max-Delh
          0                 1           4             6    5     3      -0.2905516120E-03       6   15    1       0.1132717951E+00      0.3152192273E+00      0.4887600578E-01     -0.2905516120E-03
          0                 2           3             6    5     3       0.2337206905E-04       6   15    1      -0.1424075212E-01      0.3765739994E-01      0.3152192273E+00      0.2337206905E-04

    ------------------------------------------------
       NWT REQUIRED            2 OUTER ITERATIONS 
       AND A TOTAL OF          7 INNER ITERATIONS.
    ------------------------------------------------

 OUTPUT CONTROL FOR STRESS PERIOD     15   TIME STEP     1
    SAVE BUDGET
 UBDSV1 SAVING "         STORAGE" ON UNIT7013 AT TIME STEP    1, STRESS PERIOD  15
 UBDSV2 SAVING "   CONSTANT HEAD" ON UNIT7013 AT TIME STEP    1, STRESS PERIOD  15
 UBDSV1 SAVING "FLOW RIGHT FACE " ON UNIT7013 AT TIME STEP    1, STRESS PERIOD  15
 UBDSV1 SAVING "FLOW FRONT FACE " ON UNIT7013 AT TIME STEP    1, STRESS PERIOD  15
 UBDSV1 SAVING "FLOW LOWER FACE " ON UNIT7013 AT TIME STEP    1, STRESS PERIOD  15
 UBDSV4 SAVING "  STREAM LEAKAGE" ON UNIT7013 AT TIME STEP    1, STRESS PERIOD  15



 
 
 
 
 
 
 
 
 UBDSV3 SAVING "FARM  NET  RECH." ON UNIT7013 AT TIME STEP    1, STRESS PERIOD  15
 UBDSV4 SAVING " GHOST-NODE HEAD" ON UNIT7013 AT TIME STEP    1, STRESS PERIOD  15
1
  FLUX ACROSS PARENT-CHILD INTERFACE AT TIME STEP  1 IN STRESS PERIOD   15
  ------------------------------------------------------------------------
 G-N FLUX        PARENT        CHILD         DIFFERENCE      % DIFFERENCE
  RATE IN:      2.7956E+03    2.7951E+03     5.0049E-01        0.0179
 RATE OUT:      3.7483E+03    3.7480E+03     2.5903E-01        0.0069
 
 SOLVING FOR HEAD 
                                                   Max.-Head-Change                        Max.-Flux-Residual
  Residual-Control   Outer-Iter.   Inner-Iter.     Column Row Layer    Max.-Head-Change    Column Row Layer    Max.-Flux-Residual            L2-New               L2-Old           Solver-Max-Delh
          0                 1           8             1    2     4       0.1263704479E+00       6    1    1       0.3542824615E+02      0.8647163660E+02      0.3765739994E-01      0.1263704479E+00
          0                 2           6             1    2     4      -0.1090422220E-01       6    1    1      -0.3562409094E+01      0.8640230577E+01      0.8647163660E+02     -0.1090422220E-01
          0                 3           5             1    2     4      -0.5523700125E-03       6    1    1      -0.1770983745E+00      0.4274881772E+00      0.8640230577E+01     -0.5523700125E-03
          0                 4           3             1    2     4      -0.2826144129E-04       1    1    1      -0.1345590665E-01      0.2950936110E-01      0.4274881772E+00     -0.2826144129E-04

    ------------------------------------------------
       NWT REQUIRED            4 OUTER ITERATIONS 
       AND A TOTAL OF         22 INNER ITERATIONS.
    ------------------------------------------------
                                                   Max.-Head-Change                        Max.-Flux-Residual
  Residual-Control   Outer-Iter.   Inner-Iter.     Column Row Layer    Max.-Head-Change    Column Row Layer    Max.-Flux-Residual            L2-New               L2-Old           Solver-Max-Delh
          0                 1           7             1    1     3       0.3679932400E-01       6    1    1       0.1699163644E+02      0.4613125125E+02      0.2950936110E-01      0.3679932400E-01
          0                 2           6             1    1     3      -0.3175896606E-02       6    1    1      -0.1706858428E+01      0.4450012451E+01      0.4613125125E+02     -0.3175896606E-02
          0                 3           4             1    1     3      -0.1583687444E-03       6    1    1      -0.8894551278E-01      0.2337660148E+00      0.4450012451E+01     -0.1583687444E-03
          0                 4           2             1    1     3      -0.7932466783E-05       1   14    1       0.9764315793E-02      0.2454705251E-01      0.2337660148E+00     -0.7932466783E-05

    ------------------------------------------------
       NWT REQUIRED            4 OUTER ITERATIONS 
       AND A TOTAL OF         19 INNER ITERATIONS.
    ------------------------------------------------
                                                   Max.-Head-Change                        Max.-Flux-Residual
  Residual-Control   Outer-Iter.   Inner-Iter.     Column Row Layer    Max.-Head-Change    Column Row Layer    Max.-Flux-Residual            L2-New               L2-Old           Solver-Max-Delh
          0                 1           6             6    1     4       0.1667574139E-01       6    1    1       0.7848438484E+01      0.1699660240E+02      0.2454705251E-01      0.1667574139E-01
          0                 2           5             6    1     4      -0.1437265143E-02       6    1    1      -0.7868436108E+00      0.1697089829E+01      0.1699660240E+02     -0.1437265143E-02
          0                 3           4             6    1     4      -0.7231820236E-04       6    1    1      -0.4570612375E-01      0.9207546848E-01      0.1697089829E+01     -0.7231820236E-04

    ------------------------------------------------
       NWT REQUIRED            3 OUTER ITERATIONS 
       AND A TOTAL OF         15 INNER ITERATIONS.
    ------------------------------------------------
                                                   Max.-Head-Change                        Max.-Flux-Residual
  Residual-Control   Outer-Iter.   Inner-Iter.     Column Row Layer    Max.-Head-Change    Column Row Layer    Max.-Flux-Residual            L2-New               L2-Old           Solver-Max-Delh
          0                 1           6             6    1     4       0.7004309451E-02       6    1    1       0.3143298370E+01      0.6894048321E+01      0.9207546848E-01      0.7004309451E-02
          0                 2           5             6    1     4      -0.6030717409E-03       6    1    1      -0.3098220766E+00      0.6842017540E+00      0.6894048321E+01     -0.6030717409E-03
          0                 3           3             6    1     4      -0.3043299696E-04       6    1    1      -0.1681539958E-01      0.4173649451E-01      0.6842017540E+00     -0.3043299696E-04

    ------------------------------------------------
       NWT REQUIRED            3 OUTER ITERATIONS 
       AND A TOTAL OF         14 INNER ITERATIONS.
    ------------------------------------------------
                                                   Max.-Head-Change                        Max.-Flux-Residual
  Residual-Control   Outer-Iter.   Inner-Iter.     Column Row Layer    Max.-Head-Change    Column Row Layer    Max.-Flux-Residual            L2-New               L2-Old           Solver-Max-Delh
          0                 1           5             6    1     4       0.2463886963E-02       6    1    1       0.9962823348E+00      0.2765857152E+01      0.4173649451E-01      0.2463886963E-02
          0                 2           4             6    1     4      -0.2097088129E-03       6    1    1      -0.9979193227E-01      0.2753317537E+00      0.2765857152E+01     -0.2097088129E-03
          0                 3           2             6    1     4      -0.1067080785E-04       6    5    1      -0.9503497567E-02      0.2283610796E-01      0.2753317537E+00     -0.1067080785E-04

    ------------------------------------------------
       NWT REQUIRED            3 OUTER ITERATIONS 
       AND A TOTAL OF         11 INNER ITERATIONS.
    ------------------------------------------------
                                                   Max.-Head-Change                        Max.-Flux-Residual
  Residual-Control   Outer-Iter.   Inner-Iter.     Column Row Layer    Max.-Head-Change    Column Row Layer    Max.-Flux-Residual            L2-New               L2-Old           Solver-Max-Delh
          0                 1           5             6   15     4       0.7861203398E-03       1    1    1      -0.3670372464E+00      0.1153332979E+01      0.2283610796E-01      0.7861203398E-03
          0                 2           4             6   15     4      -0.6779804702E-04       1    1    1       0.3858398087E-01      0.1169548276E+00      0.1153332979E+01     -0.6779804702E-04

    ------------------------------------------------
       NWT REQUIRED            2 OUTER ITERATIONS 
       AND A TOTAL OF          9 INNER ITERATIONS.
    ------------------------------------------------
                                                   Max.-Head-Change                        Max.-Flux-Residual
  Residual-Control   Outer-Iter.   Inner-Iter.     Column Row Layer    Max.-Head-Change    Column Row Layer    Max.-Flux-Residual            L2-New               L2-Old           Solver-Max-Delh
          0                 1           5             1    1     3      -0.5648672668E-03       3    1    1      -0.2422730059E+00      0.5341650875E+00      0.1169548276E+00     -0.5648672668E-03
          0                 2           3             1    1     3       0.4786494056E-04       1    1    1       0.2863902622E-01      0.6261182452E-01      0.5341650875E+00      0.4786494056E-04

    ------------------------------------------------
       NWT REQUIRED            2 OUTER ITERATIONS 
       AND A TOTAL OF          8 INNER ITERATIONS.
    ------------------------------------------------
                                                   Max.-Head-Change                        Max.-Flux-Residual
  Residual-Control   Outer-Iter.   Inner-Iter.     Column Row Layer    Max.-Head-Change    Column Row Layer    Max.-Flux-Residual            L2-New               L2-Old           Solver-Max-Delh
          0                 1           4             1    1     3      -0.3717424989E-03       6    1    1      -0.1111204200E+00      0.2892273484E+00      0.6261182452E-01     -0.3717424989E-03
          0                 2           2             1    1     3       0.2919249052E-04       1    1    1       0.9950206149E-02      0.2981067502E-01      0.2892273484E+00      0.2919249052E-04

    ------------------------------------------------
       NWT REQUIRED            2 OUTER ITERATIONS 
       AND A TOTAL OF          6 INNER ITERATIONS.
    ------------------------------------------------
                                                   Max.-Head-Change                        Max.-Flux-Residual
  Residual-Control   Outer-Iter.   Inner-Iter.     Column Row Layer    Max.-Head-Change    Column Row Layer    Max.-Flux-Residual            L2-New               L2-Old           Solver-Max-Delh
          0                 1           4             6    4     3      -0.1979537128E-03       6    1    1      -0.6418782606E-01      0.1951817917E+00      0.2981067502E-01     -0.1979537128E-03
          0                 2           3             6    3     3       0.1600588612E-04       6    4    1       0.8076187049E-02      0.2597844646E-01      0.1951817917E+00      0.1600588612E-04

    ------------------------------------------------
       NWT REQUIRED            2 OUTER ITERATIONS 
       AND A TOTAL OF          7 INNER ITERATIONS.
    ------------------------------------------------

 OUTPUT CONTROL FOR STRESS PERIOD     15   TIME STEP     2
    PRINT BUDGET
    SAVE HEAD FOR ALL LAYERS
    SAVE BUDGET
 UBDSV1 SAVING "         STORAGE" ON UNIT7013 AT TIME STEP    2, STRESS PERIOD  15
 UBDSV2 SAVING "   CONSTANT HEAD" ON UNIT7013 AT TIME STEP    2, STRESS PERIOD  15
 UBDSV1 SAVING "FLOW RIGHT FACE " ON UNIT7013 AT TIME STEP    2, STRESS PERIOD  15
 UBDSV1 SAVING "FLOW FRONT FACE " ON UNIT7013 AT TIME STEP    2, STRESS PERIOD  15
 UBDSV1 SAVING "FLOW LOWER FACE " ON UNIT7013 AT TIME STEP    2, STRESS PERIOD  15
 UBDSV4 SAVING "  STREAM LEAKAGE" ON UNIT7013 AT TIME STEP    2, STRESS PERIOD  15



 
 
 
 
 
 
 
 
 UBDSV3 SAVING "FARM  NET  RECH." ON UNIT7013 AT TIME STEP    2, STRESS PERIOD  15
 UBDSV4 SAVING " GHOST-NODE HEAD" ON UNIT7013 AT TIME STEP    2, STRESS PERIOD  15

 HEAD WILL BE SAVED ON UNIT 2213 AT END OF TIME STEP     2, STRESS PERIOD     15
1
  VOLUMETRIC BUDGET FOR ENTIRE MODEL AT END OF TIME STEP    2 IN STRESS PERIOD     15
  ------------------------------------------------------------------------------

     CUMULATIVE VOLUMES      L**3       RATES FOR THIS TIME STEP      L**3/T
     ------------------                 ------------------------

           IN:                                      IN:
           ---                                      ---
             STORAGE =       79440.6953               STORAGE =           8.3942
       CONSTANT HEAD =           0.0000         CONSTANT HEAD =           0.0000
      STREAM LEAKAGE =      469635.2188        STREAM LEAKAGE =         322.2556
          FARM WELLS =           0.0000            FARM WELLS =           0.0000
    FARM  NET  RECH. =      279690.6562      FARM  NET  RECH. =         833.3000
     GHOST-NODE HEAD =     4382111.5000       GHOST-NODE HEAD =        2785.0801

            TOTAL IN =     5210878.0000              TOTAL IN =        3949.0300

          OUT:                                     OUT:
          ----                                     ----
             STORAGE =     4087176.5000               STORAGE =         139.4334
       CONSTANT HEAD =           0.0000         CONSTANT HEAD =           0.0000
      STREAM LEAKAGE =           0.0000        STREAM LEAKAGE =           0.0000
          FARM WELLS =       45434.2578            FARM WELLS =           0.0000
    FARM  NET  RECH. =           0.0000      FARM  NET  RECH. =           0.0000
     GHOST-NODE HEAD =     1078263.1250       GHOST-NODE HEAD =        3809.5896

           TOTAL OUT =     5210874.0000             TOTAL OUT =        3949.0229

            IN - OUT =           4.0000              IN - OUT =       7.0801E-03

 PERCENT DISCREPANCY =           0.00     PERCENT DISCREPANCY =           0.00






          TIME SUMMARY AT END OF TIME STEP     2 IN STRESS PERIOD     15
                    SECONDS     MINUTES      HOURS       DAYS        YEARS
                    -----------------------------------------------------------
   TIME STEP LENGTH 1.31414E+06  21902.      365.04      15.210     4.16427E-02
 STRESS PERIOD TIME 2.62829E+06  43805.      730.08      30.420     8.32854E-02
         TOTAL TIME 3.94243E+07 6.57072E+05  10951.      456.30      1.2493    
1
1
  FLUX ACROSS PARENT-CHILD INTERFACE AT TIME STEP  2 IN STRESS PERIOD   15
  ------------------------------------------------------------------------
 G-N FLUX        PARENT        CHILD         DIFFERENCE      % DIFFERENCE
  RATE IN:      2.7854E+03    2.7851E+03     2.8784E-01        0.0103
 RATE OUT:      3.8098E+03    3.8096E+03     2.3779E-01        0.0062
1
                            STRESS PERIOD NO.     16, LENGTH =   30.42000    
                            -----------------------------------------------

                              NUMBER OF TIME STEPS =     2

                               MULTIPLIER FOR DELT =     1.000

                            INITIAL TIME STEP SIZE =   15.21000    

 REUSING STREAM SEGMENT DATA FROM LAST STRESS PERIOD

 Parameter:  WELLS1
 WELL NO. LAYER    ROW    COL  F-WELL ID    FARM ID         QMAX         QMAXRESET       LGRGRID         
 --------------------------------------------------------------------------------------------------------
       1      1      2      2          5          2      2.0000E+03              0              0
       2      1      5      5          6          2      1.0000E+03              0              0

 NUMBER OF ACTIVE FARM WELLS:        2

 FARM-ID  NUMBER OF WELLS PER FARM  TOTAL MAX.CAPACITY PER FARM
       1                         0                       0.0000
       2                         2                    3000.0000
       3                         0                       0.0000
       4                         0                       0.0000
       5                         0                       0.0000
       6                         0                       0.0000
       7                         0                       0.0000
       8                         0                       0.0000

Transpiratory and Evaporative Fractions of Crop Consumptive Use
    % Transpiration % Evap. for Precip. % Evap. for Irrig.
    3          0.000          1.000          1.000
    5          0.887          0.113          0.000

FRACTIONS OF IN-EFFICIENT LOSSES TO SW-RUNOFF FROM 
     PRECIPITATION:  IRRIGATION:
    3          0.600          0.500
    5          0.500          0.000
 
 SOLVING FOR HEAD 
                                                   Max.-Head-Change                        Max.-Flux-Residual
  Residual-Control   Outer-Iter.   Inner-Iter.     Column Row Layer    Max.-Head-Change    Column Row Layer    Max.-Flux-Residual            L2-New               L2-Old           Solver-Max-Delh
          0                 1           8             1    6     1      -0.1202894620E+00       3    1    1      -0.3098639320E+02      0.1176859919E+03      0.2597844646E-01     -0.1202894620E+00
          0                 2           7             1    6     1       0.1030932989E-01       1    1    1       0.3076924072E+01      0.1154760248E+02      0.1176859919E+03      0.1030932989E-01
          0                 3           5             1    6     1       0.5175560105E-03       2    1    1       0.1556306279E+00      0.5944233505E+00      0.1154760248E+02      0.5175560105E-03
          0                 4           3             1    7     1       0.2613486248E-04       3    1    1       0.1291006897E-01      0.4091027962E-01      0.5944233505E+00      0.2613486248E-04

    ------------------------------------------------
       NWT REQUIRED            4 OUTER ITERATIONS 
       AND A TOTAL OF         23 INNER ITERATIONS.
    ------------------------------------------------
                                                   Max.-Head-Change                        Max.-Flux-Residual
  Residual-Control   Outer-Iter.   Inner-Iter.     Column Row Layer    Max.-Head-Change    Column Row Layer    Max.-Flux-Residual            L2-New               L2-Old           Solver-Max-Delh
          0                 1           9             1   11     1      -0.1145900307E+00       1   10    1      -0.8517254507E+02      0.2108931312E+03      0.4091027962E-01     -0.1145900307E+00
          0                 2           7             1    1     1       0.9827238089E-02       1   11    1       0.8328653904E+01      0.2055638408E+02      0.2108931312E+03      0.9827238089E-02
          0                 3           5             1   11     1       0.4993642632E-03       1   10    1       0.4251463797E+00      0.1065089511E+01      0.2055638408E+02      0.4993642632E-03
          0                 4           3             1   10     1       0.2607426408E-04       1   10    1       0.2736968198E-01      0.5932155452E-01      0.1065089511E+01      0.2607426408E-04

    ------------------------------------------------
       NWT REQUIRED            4 OUTER ITERATIONS 
       AND A TOTAL OF         24 INNER ITERATIONS.
    ------------------------------------------------
                                                   Max.-Head-Change                        Max.-Flux-Residual
  Residual-Control   Outer-Iter.   Inner-Iter.     Column Row Layer    Max.-Head-Change    Column Row Layer    Max.-Flux-Residual            L2-New               L2-Old           Solver-Max-Delh
          0                 1           8             1   11     1      -0.5579172895E-01       1   11    1      -0.4189944274E+02      0.8689047195E+02      0.5932155452E-01     -0.5579172895E-01
          0                 2           6             1   11     1       0.4714617304E-02       1   12    1       0.4131570983E+01      0.8571691301E+01      0.8689047195E+02      0.4714617304E-02
          0                 3           4             1   11     1       0.2425089047E-03       1   12    1       0.2155476284E+00      0.4414111534E+00      0.8571691301E+01      0.2425089047E-03
          0                 4           2             1   11     1       0.9848439693E-05       1   10    1       0.1106705121E-01      0.2561058492E-01      0.4414111534E+00      0.9848439693E-05

    ------------------------------------------------
       NWT REQUIRED            4 OUTER ITERATIONS 
       AND A TOTAL OF         20 INNER ITERATIONS.
    ------------------------------------------------
                                                   Max.-Head-Change                        Max.-Flux-Residual
  Residual-Control   Outer-Iter.   Inner-Iter.     Column Row Layer    Max.-Head-Change    Column Row Layer    Max.-Flux-Residual            L2-New               L2-Old           Solver-Max-Delh
          0                 1           7             1   11     1      -0.1795317405E-01       1   11    1      -0.1267042721E+02      0.3276789553E+02      0.2561058492E-01     -0.1795317405E-01
          0                 2           6             1   11     1       0.1516476796E-02       1   12    1       0.1253482105E+01      0.3236629981E+01      0.3276789553E+02      0.1516476796E-02
          0                 3           4             1   11     1       0.7671330932E-04       1   12    1       0.6400805269E-01      0.1662748586E+00      0.3236629981E+01      0.7671330932E-04

    ------------------------------------------------
       NWT REQUIRED            3 OUTER ITERATIONS 
       AND A TOTAL OF         17 INNER ITERATIONS.
    ------------------------------------------------
                                                   Max.-Head-Change                        Max.-Flux-Residual
  Residual-Control   Outer-Iter.   Inner-Iter.     Column Row Layer    Max.-Head-Change    Column Row Layer    Max.-Flux-Residual            L2-New               L2-Old           Solver-Max-Delh
          0                 1           6             6   15     2      -0.4704779043E-02       6   15    1      -0.4708636856E+01      0.1156374626E+02      0.1662748586E+00     -0.4704779043E-02
          0                 2           5             6   15     2       0.4022958934E-03       6   15    1       0.4718485273E+00      0.1150096044E+01      0.1156374626E+02      0.4022958934E-03
          0                 3           3             6   15     1       0.2138515510E-04       6   15    1       0.2727422200E-01      0.6042808679E-01      0.1150096044E+01      0.2138515510E-04

    ------------------------------------------------
       NWT REQUIRED            3 OUTER ITERATIONS 
       AND A TOTAL OF         14 INNER ITERATIONS.
    ------------------------------------------------
                                                   Max.-Head-Change                        Max.-Flux-Residual
  Residual-Control   Outer-Iter.   Inner-Iter.     Column Row Layer    Max.-Head-Change    Column Row Layer    Max.-Flux-Residual            L2-New               L2-Old           Solver-Max-Delh
          0                 1           6             1   11     2       0.4014529163E-02       1   10    1       0.3365997744E+01      0.7677457035E+01      0.6042808679E-01      0.4014529163E-02
          0                 2           4             1   11     2      -0.3443670100E-03       1   11    1      -0.3296825476E+00      0.7588563338E+00      0.7677457035E+01     -0.3443670100E-03
          0                 3           3             1   11     1      -0.1989771542E-04       1   10    1      -0.2027632901E-01      0.4663131607E-01      0.7588563338E+00     -0.1989771542E-04

    ------------------------------------------------
       NWT REQUIRED            3 OUTER ITERATIONS 
       AND A TOTAL OF         13 INNER ITERATIONS.
    ------------------------------------------------
                                                   Max.-Head-Change                        Max.-Flux-Residual
  Residual-Control   Outer-Iter.   Inner-Iter.     Column Row Layer    Max.-Head-Change    Column Row Layer    Max.-Flux-Residual            L2-New               L2-Old           Solver-Max-Delh
          0                 1           6             1   11     1       0.3326999220E-02       1   10    1       0.2602628381E+01      0.5481237398E+01      0.4663131607E-01      0.3326999220E-02
          0                 2           4             1   11     1      -0.2846866241E-03       1   10    1      -0.2612473802E+00      0.5403619707E+00      0.5481237398E+01     -0.2846866241E-03
          0                 3           3             1   11     2      -0.1287314293E-04       1   11    1      -0.1166440127E-01      0.2977190250E-01      0.5403619707E+00     -0.1287314293E-04

    ------------------------------------------------
       NWT REQUIRED            3 OUTER ITERATIONS 
       AND A TOTAL OF         13 INNER ITERATIONS.
    ------------------------------------------------
                                                   Max.-Head-Change                        Max.-Flux-Residual
  Residual-Control   Outer-Iter.   Inner-Iter.     Column Row Layer    Max.-Head-Change    Column Row Layer    Max.-Flux-Residual            L2-New               L2-Old           Solver-Max-Delh
          0                 1           6             1   11     1       0.1713110532E-02       1   11    1       0.1259384029E+01      0.3158898893E+01      0.2977190250E-01      0.1713110532E-02
          0                 2           4             1   11     1      -0.1484876555E-03       1   11    1      -0.1293239351E+00      0.3139099777E+00      0.3158898893E+01     -0.1484876555E-03
          0                 3           2             1   11     1      -0.8429179866E-05       6   14    1      -0.9837546851E-02      0.2405238719E-01      0.3139099777E+00     -0.8429179866E-05

    ------------------------------------------------
       NWT REQUIRED            3 OUTER ITERATIONS 
       AND A TOTAL OF         12 INNER ITERATIONS.
    ------------------------------------------------
                                                   Max.-Head-Change                        Max.-Flux-Residual
  Residual-Control   Outer-Iter.   Inner-Iter.     Column Row Layer    Max.-Head-Change    Column Row Layer    Max.-Flux-Residual            L2-New               L2-Old           Solver-Max-Delh
          0                 1           5             1   11     1       0.5796313771E-03       6   15    1       0.5849538558E+00      0.1406942615E+01      0.2405238719E-01      0.5796313771E-03
          0                 2           4             6   13     1      -0.5069626689E-04       6   15    1      -0.6206827459E-01      0.1431864330E+00      0.1406942615E+01     -0.5069626689E-04

    ------------------------------------------------
       NWT REQUIRED            2 OUTER ITERATIONS 
       AND A TOTAL OF          9 INNER ITERATIONS.
    ------------------------------------------------
                                                   Max.-Head-Change                        Max.-Flux-Residual
  Residual-Control   Outer-Iter.   Inner-Iter.     Column Row Layer    Max.-Head-Change    Column Row Layer    Max.-Flux-Residual            L2-New               L2-Old           Solver-Max-Delh
          0                 1           5             6   15     1       0.2867422236E-03       6   15    1       0.3015988260E+00      0.6248978052E+00      0.1431864330E+00      0.2867422236E-03
          0                 2           3             6   13     1      -0.2151605767E-04       6   13    1      -0.2132014296E-01      0.5960954101E-01      0.6248978052E+00     -0.2151605767E-04

    ------------------------------------------------
       NWT REQUIRED            2 OUTER ITERATIONS 
       AND A TOTAL OF          8 INNER ITERATIONS.
    ------------------------------------------------
                                                   Max.-Head-Change                        Max.-Flux-Residual
  Residual-Control   Outer-Iter.   Inner-Iter.     Column Row Layer    Max.-Head-Change    Column Row Layer    Max.-Flux-Residual            L2-New               L2-Old           Solver-Max-Delh
          0                 1           4             6   15     1       0.1184890222E-03       6   15    1       0.1251367389E+00      0.3093968299E+00      0.5960954101E-01      0.1184890222E-03
          0                 2           2             6   15     1      -0.1039935837E-04       6   15    1      -0.1448063145E-01      0.3798114914E-01      0.3093968299E+00     -0.1039935837E-04

    ------------------------------------------------
       NWT REQUIRED            2 OUTER ITERATIONS 
       AND A TOTAL OF          6 INNER ITERATIONS.
    ------------------------------------------------

 OUTPUT CONTROL FOR STRESS PERIOD     16   TIME STEP     1
    SAVE BUDGET
 UBDSV1 SAVING "         STORAGE" ON UNIT7013 AT TIME STEP    1, STRESS PERIOD  16
 UBDSV2 SAVING "   CONSTANT HEAD" ON UNIT7013 AT TIME STEP    1, STRESS PERIOD  16
 UBDSV1 SAVING "FLOW RIGHT FACE " ON UNIT7013 AT TIME STEP    1, STRESS PERIOD  16
 UBDSV1 SAVING "FLOW FRONT FACE " ON UNIT7013 AT TIME STEP    1, STRESS PERIOD  16
 UBDSV1 SAVING "FLOW LOWER FACE " ON UNIT7013 AT TIME STEP    1, STRESS PERIOD  16
 UBDSV4 SAVING "  STREAM LEAKAGE" ON UNIT7013 AT TIME STEP    1, STRESS PERIOD  16



 
 
 
 
 
 
 
 
 UBDSV3 SAVING "FARM  NET  RECH." ON UNIT7013 AT TIME STEP    1, STRESS PERIOD  16
 UBDSV4 SAVING " GHOST-NODE HEAD" ON UNIT7013 AT TIME STEP    1, STRESS PERIOD  16
1
  FLUX ACROSS PARENT-CHILD INTERFACE AT TIME STEP  1 IN STRESS PERIOD   16
  ------------------------------------------------------------------------
 G-N FLUX        PARENT        CHILD         DIFFERENCE      % DIFFERENCE
  RATE IN:      2.5792E+03    2.5795E+03    -2.1509E-01       -0.0083
 RATE OUT:      3.6917E+03    3.6909E+03     8.0151E-01        0.0217
 
 SOLVING FOR HEAD 
                                                   Max.-Head-Change                        Max.-Flux-Residual
  Residual-Control   Outer-Iter.   Inner-Iter.     Column Row Layer    Max.-Head-Change    Column Row Layer    Max.-Flux-Residual            L2-New               L2-Old           Solver-Max-Delh
          0                 1           8             6    4     3      -0.1177872645E+00       6    1    1      -0.3580533317E+02      0.1246199105E+03      0.3798114914E-01     -0.1177872645E+00
          0                 2           7             6    4     3       0.1017135920E-01       6    1    1       0.3607279413E+01      0.1252568433E+02      0.1246199105E+03      0.1017135920E-01
          0                 3           5             6    4     3       0.5068444933E-03       1   10    1       0.1789614102E+00      0.6172487158E+00      0.1252568433E+02      0.5068444933E-03
          0                 4           3             6    4     3       0.2701130549E-04       1   11    1       0.1129210100E-01      0.3532469683E-01      0.6172487158E+00      0.2701130549E-04

    ------------------------------------------------
       NWT REQUIRED            4 OUTER ITERATIONS 
       AND A TOTAL OF         23 INNER ITERATIONS.
    ------------------------------------------------
                                                   Max.-Head-Change                        Max.-Flux-Residual
  Residual-Control   Outer-Iter.   Inner-Iter.     Column Row Layer    Max.-Head-Change    Column Row Layer    Max.-Flux-Residual            L2-New               L2-Old           Solver-Max-Delh
          0                 1           8             1   11     1      -0.7349414457E-01       6   14    1      -0.6644519136E+02      0.1425707733E+03      0.3532469683E-01     -0.7349414457E-01
          0                 2           7             5   14     1      -0.3883537132E-01       5   14    1      -0.6325146905E+02      0.6599536893E+02      0.1425707733E+03     -0.3883537132E-01
          0                 3           5             5   14     1      -0.9082041071E-03       5   14    1      -0.1883611091E+01      0.2568272565E+01      0.6599536893E+02     -0.9082041071E-03
          0                 4           4             5   14     1      -0.2598878352E-03       5   14    1      -0.4381700704E+00      0.6331918822E+00      0.2568272565E+01     -0.2598878352E-03
          0                 5           3             6   14     1      -0.3458783796E-04       6   14    1      -0.1010801778E+00      0.1305595546E+00      0.6331918822E+00     -0.3458783796E-04

    ------------------------------------------------
       NWT REQUIRED            5 OUTER ITERATIONS 
       AND A TOTAL OF         27 INNER ITERATIONS.
    ------------------------------------------------
                                                   Max.-Head-Change                        Max.-Flux-Residual
  Residual-Control   Outer-Iter.   Inner-Iter.     Column Row Layer    Max.-Head-Change    Column Row Layer    Max.-Flux-Residual            L2-New               L2-Old           Solver-Max-Delh
          0                 1           8             6   13     1      -0.3564680717E-01       6   15    1      -0.3531801328E+02      0.8310729624E+02      0.1305595546E+00     -0.3564680717E-01
          0                 2           6             5   14     1      -0.1146082985E-01       5   14    1      -0.2439953082E+02      0.2565090155E+02      0.8310729624E+02     -0.1146082985E-01
          0                 3           5             6   13     1      -0.3559391200E-03       6   13    1      -0.3646255035E+00      0.7506476661E+00      0.2565090155E+02     -0.3559391200E-03
          0                 4           3             5   14     1      -0.7690655248E-04       5   14    1      -0.1744644188E+00      0.3087507092E+00      0.7506476661E+00     -0.7690655248E-04

    ------------------------------------------------
       NWT REQUIRED            4 OUTER ITERATIONS 
       AND A TOTAL OF         22 INNER ITERATIONS.
    ------------------------------------------------
                                                   Max.-Head-Change                        Max.-Flux-Residual
  Residual-Control   Outer-Iter.   Inner-Iter.     Column Row Layer    Max.-Head-Change    Column Row Layer    Max.-Flux-Residual            L2-New               L2-Old           Solver-Max-Delh
          0                 1           7             6   15     1      -0.1634904495E-01       5   14    1       0.2049686092E+02      0.4153381714E+02      0.3087507092E+00     -0.1634904495E-01
          0                 2           6             5   14     1      -0.3696829258E-02       5   14    1      -0.8704143832E+01      0.9433650202E+01      0.4153381714E+02     -0.3696829258E-02
          0                 3           4             6   14     1      -0.1484374376E-03       6   14    1      -0.2352048451E+00      0.3889102410E+00      0.9433650202E+01     -0.1484374376E-03
          0                 4           2             5   14     1      -0.2514178485E-04       5   14    1      -0.7014353032E-01      0.1539301235E+00      0.3889102410E+00     -0.2514178485E-04

    ------------------------------------------------
       NWT REQUIRED            4 OUTER ITERATIONS 
       AND A TOTAL OF         19 INNER ITERATIONS.
    ------------------------------------------------
                                                   Max.-Head-Change                        Max.-Flux-Residual
  Residual-Control   Outer-Iter.   Inner-Iter.     Column Row Layer    Max.-Head-Change    Column Row Layer    Max.-Flux-Residual            L2-New               L2-Old           Solver-Max-Delh
          0                 1           6             6   15     1      -0.7249534194E-02       5   14    1       0.9670939809E+01      0.1868190663E+02      0.1539301235E+00     -0.7249534194E-02
          0                 2           5             5   14     1      -0.8737687277E-03       5   14    1      -0.2511575279E+01      0.2983582623E+01      0.1868190663E+02     -0.8737687277E-03
          0                 3           3             5   15     1      -0.2982718736E-04       5   15    1      -0.8322208998E-01      0.1647191626E+00      0.2983582623E+01     -0.2982718736E-04

    ------------------------------------------------
       NWT REQUIRED            3 OUTER ITERATIONS 
       AND A TOTAL OF         14 INNER ITERATIONS.
    ------------------------------------------------
                                                   Max.-Head-Change                        Max.-Flux-Residual
  Residual-Control   Outer-Iter.   Inner-Iter.     Column Row Layer    Max.-Head-Change    Column Row Layer    Max.-Flux-Residual            L2-New               L2-Old           Solver-Max-Delh
          0                 1           6             6   15     1      -0.2777208388E-02       6   15    1      -0.3280018030E+01      0.7184153783E+01      0.1647191626E+00     -0.2777208388E-02
          0                 2           4             1   11     1      -0.2259466387E-03       5   14    1      -0.4735933772E+00      0.8092832595E+00      0.7184153783E+01     -0.2259466387E-03
          0                 3           2             1   11     1      -0.9868953814E-05       6   15    1       0.1638568137E-01      0.3861090782E-01      0.8092832595E+00     -0.9868953814E-05

    ------------------------------------------------
       NWT REQUIRED            3 OUTER ITERATIONS 
       AND A TOTAL OF         12 INNER ITERATIONS.
    ------------------------------------------------
                                                   Max.-Head-Change                        Max.-Flux-Residual
  Residual-Control   Outer-Iter.   Inner-Iter.     Column Row Layer    Max.-Head-Change    Column Row Layer    Max.-Flux-Residual            L2-New               L2-Old           Solver-Max-Delh
          0                 1           5             1   11     1       0.1288179031E-02       1   12    1       0.1039479334E+01      0.2613643607E+01      0.3861090782E-01      0.1288179031E-02
          0                 2           4             1   11     1      -0.1051989852E-03       1   12    1      -0.1061238415E+00      0.2659716024E+00      0.2613643607E+01     -0.1051989852E-03
          0                 3           2             1   10     1      -0.6766712305E-05       5   14    1       0.9274312237E-02      0.2174224731E-01      0.2659716024E+00     -0.6766712305E-05

    ------------------------------------------------
       NWT REQUIRED            3 OUTER ITERATIONS 
       AND A TOTAL OF         11 INNER ITERATIONS.
    ------------------------------------------------
                                                   Max.-Head-Change                        Max.-Flux-Residual
  Residual-Control   Outer-Iter.   Inner-Iter.     Column Row Layer    Max.-Head-Change    Column Row Layer    Max.-Flux-Residual            L2-New               L2-Old           Solver-Max-Delh
          0                 1           5             1    1     2       0.8824888522E-03       1    1    1       0.5026671295E+00      0.1512217715E+01      0.2174224731E-01      0.8824888522E-03
          0                 2           4             1    1     1      -0.7950566245E-04       5   14    1       0.1518668216E+00      0.2139408462E+00      0.1512217715E+01     -0.7950566245E-04

    ------------------------------------------------
       NWT REQUIRED            2 OUTER ITERATIONS 
       AND A TOTAL OF          9 INNER ITERATIONS.
    ------------------------------------------------
                                                   Max.-Head-Change                        Max.-Flux-Residual
  Residual-Control   Outer-Iter.   Inner-Iter.     Column Row Layer    Max.-Head-Change    Column Row Layer    Max.-Flux-Residual            L2-New               L2-Old           Solver-Max-Delh
          0                 1           5             1    1     2       0.5170542900E-03       6   11    1       0.2862881827E+00      0.1014056021E+01      0.2139408462E+00      0.5170542900E-03
          0                 2           3             5   14     1       0.5457741207E-04       5   14    1       0.1359982009E+00      0.1674560598E+00      0.1014056021E+01      0.5457741207E-04

    ------------------------------------------------
       NWT REQUIRED            2 OUTER ITERATIONS 
       AND A TOTAL OF          8 INNER ITERATIONS.
    ------------------------------------------------
                                                   Max.-Head-Change                        Max.-Flux-Residual
  Residual-Control   Outer-Iter.   Inner-Iter.     Column Row Layer    Max.-Head-Change    Column Row Layer    Max.-Flux-Residual            L2-New               L2-Old           Solver-Max-Delh
          0                 1           4             6   13     1       0.2634435317E-03       6   15    1       0.2069460874E+00      0.5945077814E+00      0.1674560598E+00      0.2634435317E-03
          0                 2           3             5   14     1       0.4777486365E-04       5   14    1       0.1133519019E+00      0.1296430841E+00      0.5945077814E+00      0.4777486365E-04

    ------------------------------------------------
       NWT REQUIRED            2 OUTER ITERATIONS 
       AND A TOTAL OF          7 INNER ITERATIONS.
    ------------------------------------------------
                                                   Max.-Head-Change                        Max.-Flux-Residual
  Residual-Control   Outer-Iter.   Inner-Iter.     Column Row Layer    Max.-Head-Change    Column Row Layer    Max.-Flux-Residual            L2-New               L2-Old           Solver-Max-Delh
          0                 1           4             6   14     1       0.1707575452E-03       6   15    1       0.1510682073E+00      0.3188102686E+00      0.1296430841E+00      0.1707575452E-03
          0                 2           3             5   14     1       0.3623413609E-04       5   14    1       0.8273961232E-01      0.9121053450E-01      0.3188102686E+00      0.3623413609E-04

    ------------------------------------------------
       NWT REQUIRED            2 OUTER ITERATIONS 
       AND A TOTAL OF          7 INNER ITERATIONS.
    ------------------------------------------------

 OUTPUT CONTROL FOR STRESS PERIOD     16   TIME STEP     2
    SAVE BUDGET
 UBDSV1 SAVING "         STORAGE" ON UNIT7013 AT TIME STEP    2, STRESS PERIOD  16
 UBDSV2 SAVING "   CONSTANT HEAD" ON UNIT7013 AT TIME STEP    2, STRESS PERIOD  16
 UBDSV1 SAVING "FLOW RIGHT FACE " ON UNIT7013 AT TIME STEP    2, STRESS PERIOD  16
 UBDSV1 SAVING "FLOW FRONT FACE " ON UNIT7013 AT TIME STEP    2, STRESS PERIOD  16
 UBDSV1 SAVING "FLOW LOWER FACE " ON UNIT7013 AT TIME STEP    2, STRESS PERIOD  16
 UBDSV4 SAVING "  STREAM LEAKAGE" ON UNIT7013 AT TIME STEP    2, STRESS PERIOD  16



 
 
 
 
 
 
 
 
 UBDSV3 SAVING "FARM  NET  RECH." ON UNIT7013 AT TIME STEP    2, STRESS PERIOD  16
 UBDSV4 SAVING " GHOST-NODE HEAD" ON UNIT7013 AT TIME STEP    2, STRESS PERIOD  16
1
  VOLUMETRIC BUDGET FOR ENTIRE MODEL AT END OF TIME STEP    2 IN STRESS PERIOD     16
  ------------------------------------------------------------------------------

     CUMULATIVE VOLUMES      L**3       RATES FOR THIS TIME STEP      L**3/T
     ------------------                 ------------------------

           IN:                                      IN:
           ---                                      ---
             STORAGE =       93224.5859               STORAGE =         454.8314
       CONSTANT HEAD =           0.0000         CONSTANT HEAD =           0.0000
      STREAM LEAKAGE =      484902.5938        STREAM LEAKAGE =         519.3467
          FARM WELLS =           0.0000            FARM WELLS =           0.0000
    FARM  NET  RECH. =      285035.4688      FARM  NET  RECH. =         175.7000
     GHOST-NODE HEAD =     4459605.5000       GHOST-NODE HEAD =        2515.4797

            TOTAL IN =     5322768.0000              TOTAL IN =        3665.3579

          OUT:                                     OUT:
          ----                                     ----
             STORAGE =     4087178.2500               STORAGE =           0.0000
       CONSTANT HEAD =           0.0000         CONSTANT HEAD =           0.0000
      STREAM LEAKAGE =           0.0000        STREAM LEAKAGE =           0.0000
          FARM WELLS =       45434.2578            FARM WELLS =           0.0000
    FARM  NET  RECH. =           0.0000      FARM  NET  RECH. =           0.0000
     GHOST-NODE HEAD =     1190151.6250       GHOST-NODE HEAD =        3665.3511

           TOTAL OUT =     5322764.0000             TOTAL OUT =        3665.3511

            IN - OUT =           4.0000              IN - OUT =       6.8359E-03

 PERCENT DISCREPANCY =           0.00     PERCENT DISCREPANCY =           0.00






          TIME SUMMARY AT END OF TIME STEP     2 IN STRESS PERIOD     16
                    SECONDS     MINUTES      HOURS       DAYS        YEARS
                    -----------------------------------------------------------
   TIME STEP LENGTH 1.31414E+06  21902.      365.04      15.210     4.16427E-02
 STRESS PERIOD TIME 2.62829E+06  43805.      730.08      30.420     8.32854E-02
         TOTAL TIME 4.20526E+07 7.00877E+05  11681.      486.72      1.3326    
1
1
  FLUX ACROSS PARENT-CHILD INTERFACE AT TIME STEP  2 IN STRESS PERIOD   16
  ------------------------------------------------------------------------
 G-N FLUX        PARENT        CHILD         DIFFERENCE      % DIFFERENCE
  RATE IN:      2.5155E+03    2.5155E+03     6.0791E-02        0.0024
 RATE OUT:      3.6655E+03    3.6654E+03     1.1279E-01        0.0031
1
                            STRESS PERIOD NO.     17, LENGTH =   30.42000    
                            -----------------------------------------------

                              NUMBER OF TIME STEPS =     2

                               MULTIPLIER FOR DELT =     1.000

                            INITIAL TIME STEP SIZE =   15.21000    

 REUSING STREAM SEGMENT DATA FROM LAST STRESS PERIOD

 Parameter:  WELLS1
 WELL NO. LAYER    ROW    COL  F-WELL ID    FARM ID         QMAX         QMAXRESET       LGRGRID         
 --------------------------------------------------------------------------------------------------------
       1      1      2      2          5          2      2.0000E+03              0              0
       2      1      5      5          6          2      1.0000E+03              0              0

 NUMBER OF ACTIVE FARM WELLS:        2

 FARM-ID  NUMBER OF WELLS PER FARM  TOTAL MAX.CAPACITY PER FARM
       1                         0                       0.0000
       2                         2                    3000.0000
       3                         0                       0.0000
       4                         0                       0.0000
       5                         0                       0.0000
       6                         0                       0.0000
       7                         0                       0.0000
       8                         0                       0.0000

Transpiratory and Evaporative Fractions of Crop Consumptive Use
    % Transpiration % Evap. for Precip. % Evap. for Irrig.
    3          0.000          1.000          1.000
    5          0.924          0.076          0.000

FRACTIONS OF IN-EFFICIENT LOSSES TO SW-RUNOFF FROM 
     PRECIPITATION:  IRRIGATION:
    3          0.600          0.500
    5          0.500          0.000
 
 SOLVING FOR HEAD 
                                                   Max.-Head-Change                        Max.-Flux-Residual
  Residual-Control   Outer-Iter.   Inner-Iter.     Column Row Layer    Max.-Head-Change    Column Row Layer    Max.-Flux-Residual            L2-New               L2-Old           Solver-Max-Delh
          0                 1           9             1    1     1      -0.3721625379E+00       1    1    1      -0.1988469819E+03      0.4543265835E+03      0.9121053450E-01     -0.3721625379E+00
          0                 2           8             1    1     1       0.3195151411E-01       1    1    1       0.1962900980E+02      0.4507631005E+02      0.4543265835E+03      0.3195151411E-01
          0                 3           5             1    1     1       0.1597213615E-02       1    1    1       0.9830998868E+00      0.2258132526E+01      0.4507631005E+02      0.1597213615E-02
          0                 4           4             1    1     1       0.7862796852E-04       3    1    1       0.5470813438E-01      0.1175968139E+00      0.2258132526E+01      0.7862796852E-04

    ------------------------------------------------
       NWT REQUIRED            4 OUTER ITERATIONS 
       AND A TOTAL OF         26 INNER ITERATIONS.
    ------------------------------------------------
                                                   Max.-Head-Change                        Max.-Flux-Residual
  Residual-Control   Outer-Iter.   Inner-Iter.     Column Row Layer    Max.-Head-Change    Column Row Layer    Max.-Flux-Residual            L2-New               L2-Old           Solver-Max-Delh
          0                 1           9             1    1     1      -0.2763524832E+00       1    1    1      -0.1623243574E+03      0.3771867830E+03      0.1175968139E+00     -0.2763524832E+00
          0                 2           7             1    1     1       0.2383437183E-01       1    1    1       0.1612939585E+02      0.3734236377E+02      0.3771867830E+03      0.2383437183E-01
          0                 3           5             1    1     1       0.1188046369E-02       1    1    1       0.8023705996E+00      0.2037538470E+01      0.3734236377E+02      0.1188046369E-02
          0                 4           4             1    1     1       0.5560518088E-04       6   14    1       0.5957847199E-01      0.1119931036E+00      0.2037538470E+01      0.5560518088E-04

    ------------------------------------------------
       NWT REQUIRED            4 OUTER ITERATIONS 
       AND A TOTAL OF         25 INNER ITERATIONS.
    ------------------------------------------------
                                                   Max.-Head-Change                        Max.-Flux-Residual
  Residual-Control   Outer-Iter.   Inner-Iter.     Column Row Layer    Max.-Head-Change    Column Row Layer    Max.-Flux-Residual            L2-New               L2-Old           Solver-Max-Delh
          0                 1           9             1   11     1      -0.9322816741E-01       6   14    1      -0.9226493976E+02      0.1909044893E+03      0.1119931036E+00     -0.9322816741E-01
          0                 2           7             5   14     1      -0.2737441760E-01       5   14    1      -0.3760983372E+02      0.5100737556E+02      0.1909044893E+03     -0.2737441760E-01
          0                 3           5             6   14     1       0.9208133164E-03       6   14    1       0.3029362470E+01      0.3790603019E+01      0.5100737556E+02      0.9208133164E-03
          0                 4           3             5   14     1      -0.1633992490E-03       5   14    1      -0.2991527240E+00      0.5285555932E+00      0.3790603019E+01     -0.1633992490E-03
          0                 5           2             6   14     1      -0.1308572474E-04       2   13    1      -0.3046920948E-01      0.7978067088E-01      0.5285555932E+00     -0.1308572474E-04

    ------------------------------------------------
       NWT REQUIRED            5 OUTER ITERATIONS 
       AND A TOTAL OF         26 INNER ITERATIONS.
    ------------------------------------------------
                                                   Max.-Head-Change                        Max.-Flux-Residual
  Residual-Control   Outer-Iter.   Inner-Iter.     Column Row Layer    Max.-Head-Change    Column Row Layer    Max.-Flux-Residual            L2-New               L2-Old           Solver-Max-Delh
          0                 1           8             1   11     1      -0.4100029662E-01       1   11    1      -0.2914843826E+02      0.7096128566E+02      0.7978067088E-01     -0.4100029662E-01
          0                 2           6             5   14     1      -0.1396008154E-01       5   14    1      -0.2710422150E+02      0.2801757506E+02      0.7096128566E+02     -0.1396008154E-01
          0                 3           4             6   13     1      -0.2508328756E-03       3   12    1      -0.2241376395E+00      0.6013840395E+00      0.2801757506E+02     -0.2508328756E-03
          0                 4           3             5   14     1      -0.8848062122E-04       5   14    1      -0.1832426215E+00      0.3149025577E+00      0.6013840395E+00     -0.8848062122E-04

    ------------------------------------------------
       NWT REQUIRED            4 OUTER ITERATIONS 
       AND A TOTAL OF         21 INNER ITERATIONS.
    ------------------------------------------------
                                                   Max.-Head-Change                        Max.-Flux-Residual
  Residual-Control   Outer-Iter.   Inner-Iter.     Column Row Layer    Max.-Head-Change    Column Row Layer    Max.-Flux-Residual            L2-New               L2-Old           Solver-Max-Delh
          0                 1           7             1    1     1       0.1886875502E-01       5   14    1       0.1833458980E+02      0.4128440417E+02      0.3149025577E+00      0.1886875502E-01
          0                 2           6             5   14     1      -0.3909782924E-02       5   14    1      -0.9452823425E+01      0.1015499795E+02      0.4128440417E+02     -0.3909782924E-02
          0                 3           3             5   14     1      -0.5827836952E-03       5   14    1      -0.1838090549E+01      0.2081239633E+01      0.1015499795E+02     -0.5827836952E-03
          0                 4           2             5   14     1      -0.5269509668E-04       5   14    1      -0.1597928434E+00      0.1875145426E+00      0.2081239633E+01     -0.5269509668E-04

    ------------------------------------------------
       NWT REQUIRED            4 OUTER ITERATIONS 
       AND A TOTAL OF         18 INNER ITERATIONS.
    ------------------------------------------------
                                                   Max.-Head-Change                        Max.-Flux-Residual
  Residual-Control   Outer-Iter.   Inner-Iter.     Column Row Layer    Max.-Head-Change    Column Row Layer    Max.-Flux-Residual            L2-New               L2-Old           Solver-Max-Delh
          0                 1           7             1    1     1       0.1749131082E-01       5   14    1       0.1516640504E+02      0.2800314738E+02      0.1875145426E+00      0.1749131082E-01
          0                 2           5             1    1     1      -0.1520549019E-02       5   14    1      -0.1685748665E+01      0.2900972520E+01      0.2800314738E+02     -0.1520549019E-02
          0                 3           3             1    1     1      -0.7077739733E-04       5   14    1      -0.1030033978E+00      0.1575780983E+00      0.2900972520E+01     -0.7077739733E-04

    ------------------------------------------------
       NWT REQUIRED            3 OUTER ITERATIONS 
       AND A TOTAL OF         15 INNER ITERATIONS.
    ------------------------------------------------
                                                   Max.-Head-Change                        Max.-Flux-Residual
  Residual-Control   Outer-Iter.   Inner-Iter.     Column Row Layer    Max.-Head-Change    Column Row Layer    Max.-Flux-Residual            L2-New               L2-Old           Solver-Max-Delh
          0                 1           7             1    1     1       0.1077906979E-01       5   14    1       0.8011850906E+01      0.1599733045E+02      0.1575780983E+00      0.1077906979E-01
          0                 2           5             1    1     1      -0.9345871657E-03       5   14    1       0.8666722008E+00      0.1636560369E+01      0.1599733045E+02     -0.9345871657E-03
          0                 3           3             1    1     1      -0.4417351368E-04       6   15    1       0.1040042372E+00      0.2406342203E+00      0.1636560369E+01     -0.4417351368E-04

    ------------------------------------------------
       NWT REQUIRED            3 OUTER ITERATIONS 
       AND A TOTAL OF         15 INNER ITERATIONS.
    ------------------------------------------------
                                                   Max.-Head-Change                        Max.-Flux-Residual
  Residual-Control   Outer-Iter.   Inner-Iter.     Column Row Layer    Max.-Head-Change    Column Row Layer    Max.-Flux-Residual            L2-New               L2-Old           Solver-Max-Delh
          0                 1           6             1    1     1       0.5169178356E-02       1    1    1       0.3068696357E+01      0.7617429057E+01      0.2406342203E+00      0.5169178356E-02
          0                 2           5             5   14     1       0.6997893934E-03       5   14    1       0.1201573975E+01      0.1392182121E+01      0.7617429057E+01      0.6997893934E-03
          0                 3           3             1    1     1      -0.2154998123E-04       5   14    1       0.2734238427E-01      0.5387548998E-01      0.1392182121E+01     -0.2154998123E-04

    ------------------------------------------------
       NWT REQUIRED            3 OUTER ITERATIONS 
       AND A TOTAL OF         14 INNER ITERATIONS.
    ------------------------------------------------
                                                   Max.-Head-Change                        Max.-Flux-Residual
  Residual-Control   Outer-Iter.   Inner-Iter.     Column Row Layer    Max.-Head-Change    Column Row Layer    Max.-Flux-Residual            L2-New               L2-Old           Solver-Max-Delh
          0                 1           6             1    1     1       0.1887812032E-02       1    1    1       0.1065423269E+01      0.3317961269E+01      0.5387548998E-01      0.1887812032E-02
          0                 2           4             5   14     1       0.4746532038E-03       5   14    1       0.8915876381E+00      0.9506711087E+00      0.3317961269E+01      0.4746532038E-03
          0                 3           2             6   15     1       0.1115092687E-04       6   15    1       0.1303770722E-01      0.2936929802E-01      0.9506711087E+00      0.1115092687E-04

    ------------------------------------------------
       NWT REQUIRED            3 OUTER ITERATIONS 
       AND A TOTAL OF         12 INNER ITERATIONS.
    ------------------------------------------------
                                                   Max.-Head-Change                        Max.-Flux-Residual
  Residual-Control   Outer-Iter.   Inner-Iter.     Column Row Layer    Max.-Head-Change    Column Row Layer    Max.-Flux-Residual            L2-New               L2-Old           Solver-Max-Delh
          0                 1           5             6    6     2       0.8167535818E-03       6   15    1       0.4300094617E+00      0.1627165372E+01      0.2936929802E-01      0.8167535818E-03
          0                 2           4             5   14     1       0.2742220106E-03       5   14    1       0.5405507191E+00      0.5652501736E+00      0.1627165372E+01      0.2742220106E-03
          0                 3           1             6   15     1       0.9954551583E-05       6   15    1       0.1680293484E-01      0.2230968677E-01      0.5652501736E+00      0.9954551583E-05

    ------------------------------------------------
       NWT REQUIRED            3 OUTER ITERATIONS 
       AND A TOTAL OF         10 INNER ITERATIONS.
    ------------------------------------------------
                                                   Max.-Head-Change                        Max.-Flux-Residual
  Residual-Control   Outer-Iter.   Inner-Iter.     Column Row Layer    Max.-Head-Change    Column Row Layer    Max.-Flux-Residual            L2-New               L2-Old           Solver-Max-Delh
          0                 1           5             6    8     2       0.3880830658E-03       6   15    1       0.3608177689E+00      0.9438388960E+00      0.2230968677E-01      0.3880830658E-03
          0                 2           3             5   14     1       0.1361017948E-03       5   14    1       0.2887180931E+00      0.3064284203E+00      0.9438388960E+00      0.1361017948E-03
          0                 3           1             5   15     1       0.7135273141E-05       5   15    1       0.8945910493E-02      0.1195624974E-01      0.3064284203E+00      0.7135273141E-05

    ------------------------------------------------
       NWT REQUIRED            3 OUTER ITERATIONS 
       AND A TOTAL OF          9 INNER ITERATIONS.
    ------------------------------------------------
                                                   Max.-Head-Change                        Max.-Flux-Residual
  Residual-Control   Outer-Iter.   Inner-Iter.     Column Row Layer    Max.-Head-Change    Column Row Layer    Max.-Flux-Residual            L2-New               L2-Old           Solver-Max-Delh
          0                 1           4             6   15     1       0.2413157855E-03       6   15    1       0.2248257859E+00      0.5352303663E+00      0.1195624974E-01      0.2413157855E-03
          0                 2           2             5   14     1       0.6957812871E-04       5   14    1       0.1471752753E+00      0.1556929268E+00      0.5352303663E+00      0.6957812871E-04

    ------------------------------------------------
       NWT REQUIRED            2 OUTER ITERATIONS 
       AND A TOTAL OF          6 INNER ITERATIONS.
    ------------------------------------------------

 OUTPUT CONTROL FOR STRESS PERIOD     17   TIME STEP     1
    SAVE BUDGET
 UBDSV1 SAVING "         STORAGE" ON UNIT7013 AT TIME STEP    1, STRESS PERIOD  17
 UBDSV2 SAVING "   CONSTANT HEAD" ON UNIT7013 AT TIME STEP    1, STRESS PERIOD  17
 UBDSV1 SAVING "FLOW RIGHT FACE " ON UNIT7013 AT TIME STEP    1, STRESS PERIOD  17
 UBDSV1 SAVING "FLOW FRONT FACE " ON UNIT7013 AT TIME STEP    1, STRESS PERIOD  17
 UBDSV1 SAVING "FLOW LOWER FACE " ON UNIT7013 AT TIME STEP    1, STRESS PERIOD  17
 UBDSV4 SAVING "  STREAM LEAKAGE" ON UNIT7013 AT TIME STEP    1, STRESS PERIOD  17



 
 
 
 
 
 
 
 
 UBDSV3 SAVING "FARM  NET  RECH." ON UNIT7013 AT TIME STEP    1, STRESS PERIOD  17
 UBDSV4 SAVING " GHOST-NODE HEAD" ON UNIT7013 AT TIME STEP    1, STRESS PERIOD  17
1
  FLUX ACROSS PARENT-CHILD INTERFACE AT TIME STEP  1 IN STRESS PERIOD   17
  ------------------------------------------------------------------------
 G-N FLUX        PARENT        CHILD         DIFFERENCE      % DIFFERENCE
  RATE IN:      1.9890E+03    1.9885E+03     5.1062E-01        0.0257
 RATE OUT:      3.6772E+03    3.6763E+03     9.4165E-01        0.0256
 
 SOLVING FOR HEAD 
                                                   Max.-Head-Change                        Max.-Flux-Residual
  Residual-Control   Outer-Iter.   Inner-Iter.     Column Row Layer    Max.-Head-Change    Column Row Layer    Max.-Flux-Residual            L2-New               L2-Old           Solver-Max-Delh
          0                 1           9             1    1     1      -0.3241788121E+00       6   14    1       0.2058647439E+03      0.4296162640E+03      0.1556929268E+00     -0.3241788121E+00
          0                 2           8             1    1     1       0.2799810419E-01       6   14    1      -0.2065523664E+02      0.4310784029E+02      0.4296162640E+03      0.2799810419E-01
          0                 3           6             1    1     1       0.1393002856E-02       6   14    1      -0.1039214209E+01      0.2149533109E+01      0.4310784029E+02      0.1393002856E-02
          0                 4           4             1    1     1       0.6756267286E-04       6   14    1      -0.5384228460E-01      0.1047545484E+00      0.2149533109E+01      0.6756267286E-04

    ------------------------------------------------
       NWT REQUIRED            4 OUTER ITERATIONS 
       AND A TOTAL OF         27 INNER ITERATIONS.
    ------------------------------------------------
                                                   Max.-Head-Change                        Max.-Flux-Residual
  Residual-Control   Outer-Iter.   Inner-Iter.     Column Row Layer    Max.-Head-Change    Column Row Layer    Max.-Flux-Residual            L2-New               L2-Old           Solver-Max-Delh
          0                 1           9             4   14     1      -0.2617041609E+00       3   14    1      -0.1751886311E+03      0.3980027683E+03      0.1047545484E+00     -0.2617041609E+00
          0                 2           7             5   14     1       0.1665064880E-01       2   14    1      -0.4507589933E+02      0.5926245652E+02      0.3980027683E+03      0.1665064880E-01
          0                 3           5             2   14     1       0.8453921931E-03       2   14    1       0.2753694763E+01      0.3751603450E+01      0.5926245652E+02      0.8453921931E-03
          0                 4           3             2   14     1       0.3815829386E-04       2   14    1       0.1416239369E+00      0.2122567466E+00      0.3751603450E+01      0.3815829386E-04

    ------------------------------------------------
       NWT REQUIRED            4 OUTER ITERATIONS 
       AND A TOTAL OF         24 INNER ITERATIONS.
    ------------------------------------------------
                                                   Max.-Head-Change                        Max.-Flux-Residual
  Residual-Control   Outer-Iter.   Inner-Iter.     Column Row Layer    Max.-Head-Change    Column Row Layer    Max.-Flux-Residual            L2-New               L2-Old           Solver-Max-Delh
          0                 1           8             1   11     2      -0.6039933009E-01       6   15    1      -0.4637216084E+02      0.1401971496E+03      0.2122567466E+00     -0.6039933009E-01
          0                 2           7             2   14     1      -0.5587571450E-02       2   14    1      -0.1556624699E+02      0.2086668102E+02      0.1401971496E+03     -0.5587571450E-02
          0                 3           5             2   14     1       0.3852111258E-03       2   14    1       0.1361601576E+01      0.1730304072E+01      0.2086668102E+02      0.3852111258E-03
          0                 4           3             2   14     1       0.1818013566E-04       2   14    1       0.6179811986E-01      0.7850142227E-01      0.1730304072E+01      0.1818013566E-04

    ------------------------------------------------
       NWT REQUIRED            4 OUTER ITERATIONS 
       AND A TOTAL OF         23 INNER ITERATIONS.
    ------------------------------------------------
                                                   Max.-Head-Change                        Max.-Flux-Residual
  Residual-Control   Outer-Iter.   Inner-Iter.     Column Row Layer    Max.-Head-Change    Column Row Layer    Max.-Flux-Residual            L2-New               L2-Old           Solver-Max-Delh
          0                 1           8             6   15     1      -0.3569795896E-01       6   15    1      -0.3078097906E+02      0.7196839691E+02      0.7850142227E-01     -0.3569795896E-01
          0                 2           6             2   14     1      -0.2874842641E-02       2   14    1      -0.8460426231E+01      0.1111129892E+02      0.7196839691E+02     -0.2874842641E-02
          0                 3           4             2   14     1       0.2053251358E-03       2   14    1       0.7348570816E+00      0.9577083325E+00      0.1111129892E+02      0.2053251358E-03
          0                 4           2             2   14     1       0.1037795934E-04       2   14    1       0.4039219866E-01      0.5785735480E-01      0.9577083325E+00      0.1037795934E-04

    ------------------------------------------------
       NWT REQUIRED            4 OUTER ITERATIONS 
       AND A TOTAL OF         20 INNER ITERATIONS.
    ------------------------------------------------
                                                   Max.-Head-Change                        Max.-Flux-Residual
  Residual-Control   Outer-Iter.   Inner-Iter.     Column Row Layer    Max.-Head-Change    Column Row Layer    Max.-Flux-Residual            L2-New               L2-Old           Solver-Max-Delh
          0                 1           7             6   15     1      -0.2024911111E-01       6   15    1      -0.1796335171E+02      0.3661669166E+02      0.5785735480E-01     -0.2024911111E-01
          0                 2           6             6   15     1       0.1636325868E-02       2   14    1      -0.4123882802E+01      0.5481722775E+01      0.3661669166E+02      0.1636325868E-02
          0                 3           4             2   14     1       0.9416774049E-04       2   14    1       0.3270229768E+00      0.4351405167E+00      0.5481722775E+01      0.9416774049E-04

    ------------------------------------------------
       NWT REQUIRED            3 OUTER ITERATIONS 
       AND A TOTAL OF         17 INNER ITERATIONS.
    ------------------------------------------------
                                                   Max.-Head-Change                        Max.-Flux-Residual
  Residual-Control   Outer-Iter.   Inner-Iter.     Column Row Layer    Max.-Head-Change    Column Row Layer    Max.-Flux-Residual            L2-New               L2-Old           Solver-Max-Delh
          0                 1           7             6   15     1      -0.1033785782E-01       6   15    1      -0.9368008819E+01      0.1810431692E+02      0.4351405167E+00     -0.1033785782E-01
          0                 2           5             6   15     1       0.8481203987E-03       2   14    1      -0.1863857483E+01      0.2576143149E+01      0.1810431692E+02      0.8481203987E-03
          0                 3           3             6   15     1       0.4399065548E-04       2   14    1       0.1365789505E+00      0.1904619564E+00      0.2576143149E+01      0.4399065548E-04

    ------------------------------------------------
       NWT REQUIRED            3 OUTER ITERATIONS 
       AND A TOTAL OF         15 INNER ITERATIONS.
    ------------------------------------------------
                                                   Max.-Head-Change                        Max.-Flux-Residual
  Residual-Control   Outer-Iter.   Inner-Iter.     Column Row Layer    Max.-Head-Change    Column Row Layer    Max.-Flux-Residual            L2-New               L2-Old           Solver-Max-Delh
          0                 1           6             6   15     1      -0.4738702632E-02       6   15    1      -0.4387416688E+01      0.8443693948E+01      0.1904619564E+00     -0.4738702632E-02
          0                 2           4             6   15     1       0.3905809958E-03       2   14    1      -0.8022739513E+00      0.1163167901E+01      0.8443693948E+01      0.3905809958E-03
          0                 3           2             6   15     1       0.1779080982E-04       2   14    1       0.5655804113E-01      0.8541895795E-01      0.1163167901E+01      0.1779080982E-04

    ------------------------------------------------
       NWT REQUIRED            3 OUTER ITERATIONS 
       AND A TOTAL OF         12 INNER ITERATIONS.
    ------------------------------------------------
                                                   Max.-Head-Change                        Max.-Flux-Residual
  Residual-Control   Outer-Iter.   Inner-Iter.     Column Row Layer    Max.-Head-Change    Column Row Layer    Max.-Flux-Residual            L2-New               L2-Old           Solver-Max-Delh
          0                 1           6             6   15     1      -0.1886267228E-02       6   15    1      -0.1781408683E+01      0.3720414596E+01      0.8541895795E-01     -0.1886267228E-02
          0                 2           4             6   15     1       0.1531031869E-03       2   14    1      -0.3385079068E+00      0.5041218399E+00      0.3720414596E+01      0.1531031869E-03
          0                 3           2             1    1     1      -0.1218828653E-04       2   14    1       0.2526553336E-01      0.4479520352E-01      0.5041218399E+00     -0.1218828653E-04

    ------------------------------------------------
       NWT REQUIRED            3 OUTER ITERATIONS 
       AND A TOTAL OF         12 INNER ITERATIONS.
    ------------------------------------------------
                                                   Max.-Head-Change                        Max.-Flux-Residual
  Residual-Control   Outer-Iter.   Inner-Iter.     Column Row Layer    Max.-Head-Change    Column Row Layer    Max.-Flux-Residual            L2-New               L2-Old           Solver-Max-Delh
          0                 1           5             1    1     1       0.8959252788E-03       6   15    1      -0.5902701478E+00      0.1643877527E+01      0.4479520352E-01      0.8959252788E-03
          0                 2           4             2    1     1      -0.8006792389E-04       2   14    1      -0.1409923601E+00      0.2206641561E+00      0.1643877527E+01     -0.8006792389E-04

    ------------------------------------------------
       NWT REQUIRED            2 OUTER ITERATIONS 
       AND A TOTAL OF          9 INNER ITERATIONS.
    ------------------------------------------------
                                                   Max.-Head-Change                        Max.-Flux-Residual
  Residual-Control   Outer-Iter.   Inner-Iter.     Column Row Layer    Max.-Head-Change    Column Row Layer    Max.-Flux-Residual            L2-New               L2-Old           Solver-Max-Delh
          0                 1           5             6    5     2       0.4162658201E-03       6    1    1       0.2608814427E+00      0.7752183132E+00      0.2206641561E+00      0.4162658201E-03
          0                 2           3             1    1     1      -0.3858055987E-04       2   14    1      -0.4835414066E-01      0.9403640657E-01      0.7752183132E+00     -0.3858055987E-04

    ------------------------------------------------
       NWT REQUIRED            2 OUTER ITERATIONS 
       AND A TOTAL OF          8 INNER ITERATIONS.
    ------------------------------------------------
                                                   Max.-Head-Change                        Max.-Flux-Residual
  Residual-Control   Outer-Iter.   Inner-Iter.     Column Row Layer    Max.-Head-Change    Column Row Layer    Max.-Flux-Residual            L2-New               L2-Old           Solver-Max-Delh
          0                 1           4             6    4     2       0.2140147692E-03       6    1    1       0.1228483130E+00      0.3768269270E+00      0.9403640657E-01      0.2140147692E-03
          0                 2           3             6    3     1      -0.1861558004E-04       6    3    1      -0.1651646977E-01      0.4179360381E-01      0.3768269270E+00     -0.1861558004E-04

    ------------------------------------------------
       NWT REQUIRED            2 OUTER ITERATIONS 
       AND A TOTAL OF          7 INNER ITERATIONS.
    ------------------------------------------------

 OUTPUT CONTROL FOR STRESS PERIOD     17   TIME STEP     2
    SAVE BUDGET
 UBDSV1 SAVING "         STORAGE" ON UNIT7013 AT TIME STEP    2, STRESS PERIOD  17
 UBDSV2 SAVING "   CONSTANT HEAD" ON UNIT7013 AT TIME STEP    2, STRESS PERIOD  17
 UBDSV1 SAVING "FLOW RIGHT FACE " ON UNIT7013 AT TIME STEP    2, STRESS PERIOD  17
 UBDSV1 SAVING "FLOW FRONT FACE " ON UNIT7013 AT TIME STEP    2, STRESS PERIOD  17
 UBDSV1 SAVING "FLOW LOWER FACE " ON UNIT7013 AT TIME STEP    2, STRESS PERIOD  17
 UBDSV4 SAVING "  STREAM LEAKAGE" ON UNIT7013 AT TIME STEP    2, STRESS PERIOD  17



 
 
 
 
 
 
 
 
 UBDSV3 SAVING "FARM  NET  RECH." ON UNIT7013 AT TIME STEP    2, STRESS PERIOD  17
 UBDSV4 SAVING " GHOST-NODE HEAD" ON UNIT7013 AT TIME STEP    2, STRESS PERIOD  17
1
  VOLUMETRIC BUDGET FOR ENTIRE MODEL AT END OF TIME STEP    2 IN STRESS PERIOD     17
  ------------------------------------------------------------------------------

     CUMULATIVE VOLUMES      L**3       RATES FOR THIS TIME STEP      L**3/T
     ------------------                 ------------------------

           IN:                                      IN:
           ---                                      ---
             STORAGE =      123785.3438               STORAGE =        1093.9573
       CONSTANT HEAD =           0.0000         CONSTANT HEAD =           0.0000
      STREAM LEAKAGE =      501223.5625        STREAM LEAKAGE =         300.4923
          FARM WELLS =           0.0000            FARM WELLS =           0.0000
    FARM  NET  RECH. =      285035.4688      FARM  NET  RECH. =           0.0000
     GHOST-NODE HEAD =     4521482.5000       GHOST-NODE HEAD =        2079.7229

            TOTAL IN =     5431527.0000              TOTAL IN =        3474.1724

          OUT:                                     OUT:
          ----                                     ----
             STORAGE =     4087178.2500               STORAGE =           0.0000
       CONSTANT HEAD =           0.0000         CONSTANT HEAD =           0.0000
      STREAM LEAKAGE =           0.0000        STREAM LEAKAGE =           0.0000
          FARM WELLS =       45434.2578            FARM WELLS =           0.0000
    FARM  NET  RECH. =           0.0000      FARM  NET  RECH. =           0.0000
     GHOST-NODE HEAD =     1298910.6250       GHOST-NODE HEAD =        3474.1846

           TOTAL OUT =     5431523.0000             TOTAL OUT =        3474.1846

            IN - OUT =           4.0000              IN - OUT =      -1.2207E-02

 PERCENT DISCREPANCY =           0.00     PERCENT DISCREPANCY =          -0.00






          TIME SUMMARY AT END OF TIME STEP     2 IN STRESS PERIOD     17
                    SECONDS     MINUTES      HOURS       DAYS        YEARS
                    -----------------------------------------------------------
   TIME STEP LENGTH 1.31414E+06  21902.      365.04      15.210     4.16427E-02
 STRESS PERIOD TIME 2.62829E+06  43805.      730.08      30.420     8.32854E-02
         TOTAL TIME 4.46809E+07 7.44681E+05  12411.      517.14      1.4159    
1
1
  FLUX ACROSS PARENT-CHILD INTERFACE AT TIME STEP  2 IN STRESS PERIOD   17
  ------------------------------------------------------------------------
 G-N FLUX        PARENT        CHILD         DIFFERENCE      % DIFFERENCE
  RATE IN:      2.0801E+03    2.0797E+03     4.1724E-01        0.0201
 RATE OUT:      3.4741E+03    3.4742E+03    -9.0088E-02       -0.0026
1
                            STRESS PERIOD NO.     18, LENGTH =   30.42000    
                            -----------------------------------------------

                              NUMBER OF TIME STEPS =     2

                               MULTIPLIER FOR DELT =     1.000

                            INITIAL TIME STEP SIZE =   15.21000    

 REUSING STREAM SEGMENT DATA FROM LAST STRESS PERIOD

 Parameter:  WELLS1
 WELL NO. LAYER    ROW    COL  F-WELL ID    FARM ID         QMAX         QMAXRESET       LGRGRID         
 --------------------------------------------------------------------------------------------------------
       1      1      2      2          5          2      2.0000E+03              0              0
       2      1      5      5          6          2      1.0000E+03              0              0

 NUMBER OF ACTIVE FARM WELLS:        2

 FARM-ID  NUMBER OF WELLS PER FARM  TOTAL MAX.CAPACITY PER FARM
       1                         0                       0.0000
       2                         2                    3000.0000
       3                         0                       0.0000
       4                         0                       0.0000
       5                         0                       0.0000
       6                         0                       0.0000
       7                         0                       0.0000
       8                         0                       0.0000

Transpiratory and Evaporative Fractions of Crop Consumptive Use
    % Transpiration % Evap. for Precip. % Evap. for Irrig.
    3          0.000          1.000          1.000
    5          0.927          0.073          0.000

FRACTIONS OF IN-EFFICIENT LOSSES TO SW-RUNOFF FROM 
     PRECIPITATION:  IRRIGATION:
    3          0.600          0.500
    5          0.500          0.000
 
 SOLVING FOR HEAD 
                                                   Max.-Head-Change                        Max.-Flux-Residual
  Residual-Control   Outer-Iter.   Inner-Iter.     Column Row Layer    Max.-Head-Change    Column Row Layer    Max.-Flux-Residual            L2-New               L2-Old           Solver-Max-Delh
          0                 1           9             4   14     1       0.2525564447E+00       3   14    1       0.3280500520E+03      0.7304291812E+03      0.4179360381E-01      0.2525564447E+00
          0                 2           8             4   14     1      -0.2026059942E-01       3   14    1      -0.3212084076E+02      0.6933181671E+02      0.7304291812E+03     -0.2026059942E-01
          0                 3           5             4   14     1      -0.1147210187E-02       4   14    1      -0.1729709798E+01      0.3833367162E+01      0.6933181671E+02     -0.1147210187E-02
          0                 4           4             5   14     1      -0.6483677179E-04       6   14    1      -0.1024900682E+00      0.2156646696E+00      0.3833367162E+01     -0.6483677179E-04

    ------------------------------------------------
       NWT REQUIRED            4 OUTER ITERATIONS 
       AND A TOTAL OF         26 INNER ITERATIONS.
    ------------------------------------------------
                                                   Max.-Head-Change                        Max.-Flux-Residual
  Residual-Control   Outer-Iter.   Inner-Iter.     Column Row Layer    Max.-Head-Change    Column Row Layer    Max.-Flux-Residual            L2-New               L2-Old           Solver-Max-Delh
          0                 1           9             4   14     1      -0.3348354357E+00       3   14    1      -0.2338154075E+03      0.4744272341E+03      0.2156646696E+00     -0.3348354357E+00
          0                 2           7             5   14     1       0.2183218712E-01       2   14    1      -0.5182413904E+02      0.6881538820E+02      0.4744272341E+03      0.2183218712E-01
          0                 3           5             5   14     1       0.1036270232E-02       2   14    1       0.2819363649E+01      0.3971500815E+01      0.6881538820E+02      0.1036270232E-02
          0                 4           3             5   14     1       0.5347869096E-04       2   14    1       0.1449358593E+00      0.2218959411E+00      0.3971500815E+01      0.5347869096E-04

    ------------------------------------------------
       NWT REQUIRED            4 OUTER ITERATIONS 
       AND A TOTAL OF         24 INNER ITERATIONS.
    ------------------------------------------------
                                                   Max.-Head-Change                        Max.-Flux-Residual
  Residual-Control   Outer-Iter.   Inner-Iter.     Column Row Layer    Max.-Head-Change    Column Row Layer    Max.-Flux-Residual            L2-New               L2-Old           Solver-Max-Delh
          0                 1           8             6   14     1      -0.8768157915E-01       6   15    1      -0.7973674618E+02      0.1629405557E+03      0.2218959411E+00     -0.8768157915E-01
          0                 2           7             6   14     1       0.7304941808E-02       2   14    1      -0.1238592574E+02      0.1983078535E+02      0.1629405557E+03      0.7304941808E-02
          0                 3           5             6   15     1       0.3590319370E-03       2   14    1       0.9528045509E+00      0.1424985139E+01      0.1983078535E+02      0.3590319370E-03
          0                 4           3             6   15     1       0.1607982829E-04       2   14    1       0.4681201489E-01      0.7079921604E-01      0.1424985139E+01      0.1607982829E-04

    ------------------------------------------------
       NWT REQUIRED            4 OUTER ITERATIONS 
       AND A TOTAL OF         23 INNER ITERATIONS.
    ------------------------------------------------
                                                   Max.-Head-Change                        Max.-Flux-Residual
  Residual-Control   Outer-Iter.   Inner-Iter.     Column Row Layer    Max.-Head-Change    Column Row Layer    Max.-Flux-Residual            L2-New               L2-Old           Solver-Max-Delh
          0                 1           8             6   15     1      -0.4736221290E-01       6   15    1      -0.4458620199E+02      0.9471631059E+02      0.7079921604E-01     -0.4736221290E-01
          0                 2           6             6   15     1       0.4088701320E-02       6   15    1       0.4467842080E+01      0.9689605161E+01      0.9471631059E+02      0.4088701320E-02
          0                 3           4             6   15     1       0.2018549868E-03       6   15    1       0.2220537282E+00      0.4795081828E+00      0.9689605161E+01      0.2018549868E-03
          0                 4           3             6   15     1       0.9888744158E-05       6   15    1       0.1181724342E-01      0.3030618024E-01      0.4795081828E+00      0.9888744158E-05

    ------------------------------------------------
       NWT REQUIRED            4 OUTER ITERATIONS 
       AND A TOTAL OF         21 INNER ITERATIONS.
    ------------------------------------------------
                                                   Max.-Head-Change                        Max.-Flux-Residual
  Residual-Control   Outer-Iter.   Inner-Iter.     Column Row Layer    Max.-Head-Change    Column Row Layer    Max.-Flux-Residual            L2-New               L2-Old           Solver-Max-Delh
          0                 1           7             6   15     1      -0.2218382184E-01       6   15    1      -0.2118727609E+02      0.4655855036E+02      0.3030618024E-01     -0.2218382184E-01
          0                 2           5             6   15     1       0.1929416141E-02       6   15    1       0.2118750667E+01      0.4569232487E+01      0.4655855036E+02      0.1929416141E-02
          0                 3           4             6   15     1       0.9344789570E-04       6   15    1       0.1009995932E+00      0.2261596251E+00      0.4569232487E+01      0.9344789570E-04

    ------------------------------------------------
       NWT REQUIRED            3 OUTER ITERATIONS 
       AND A TOTAL OF         16 INNER ITERATIONS.
    ------------------------------------------------
                                                   Max.-Head-Change                        Max.-Flux-Residual
  Residual-Control   Outer-Iter.   Inner-Iter.     Column Row Layer    Max.-Head-Change    Column Row Layer    Max.-Flux-Residual            L2-New               L2-Old           Solver-Max-Delh
          0                 1           7             1    1     1      -0.9453057486E-02       6   15    1      -0.8362748417E+01      0.1889374572E+02      0.2261596251E+00     -0.9453057486E-02
          0                 2           5             1    1     1       0.8130462428E-03       6   15    1       0.8410340861E+00      0.1903816922E+01      0.1889374572E+02      0.8130462428E-03
          0                 3           3             2    1     1       0.4136163244E-04       6   15    1       0.3493042523E-01      0.9570160253E-01      0.1903816922E+01      0.4136163244E-04

    ------------------------------------------------
       NWT REQUIRED            3 OUTER ITERATIONS 
       AND A TOTAL OF         15 INNER ITERATIONS.
    ------------------------------------------------
                                                   Max.-Head-Change                        Max.-Flux-Residual
  Residual-Control   Outer-Iter.   Inner-Iter.     Column Row Layer    Max.-Head-Change    Column Row Layer    Max.-Flux-Residual            L2-New               L2-Old           Solver-Max-Delh
          0                 1           6             1    1     1      -0.3528336315E-02       6   15    1      -0.2470464588E+01      0.6431384237E+01      0.9570160253E-01     -0.3528336315E-02
          0                 2           5             1    1     1       0.3057705588E-03       6   15    1       0.2442691173E+00      0.6330386409E+00      0.6431384237E+01      0.3057705588E-03
          0                 3           2             3    1     1       0.1354008422E-04       2   12    1       0.2138599136E-01      0.5298584339E-01      0.6330386409E+00      0.1354008422E-04

    ------------------------------------------------
       NWT REQUIRED            3 OUTER ITERATIONS 
       AND A TOTAL OF         13 INNER ITERATIONS.
    ------------------------------------------------
                                                   Max.-Head-Change                        Max.-Flux-Residual
  Residual-Control   Outer-Iter.   Inner-Iter.     Column Row Layer    Max.-Head-Change    Column Row Layer    Max.-Flux-Residual            L2-New               L2-Old           Solver-Max-Delh
          0                 1           5             2   14     1      -0.1497869681E-02       2   14    1      -0.2176691120E+01      0.2753413306E+01      0.5298584339E-01     -0.1497869681E-02
          0                 2           3             2   14     1      -0.8108493058E-04       2   14    1      -0.1717222012E+00      0.2416392998E+00      0.2753413306E+01     -0.8108493058E-04

    ------------------------------------------------
       NWT REQUIRED            2 OUTER ITERATIONS 
       AND A TOTAL OF          8 INNER ITERATIONS.
    ------------------------------------------------
                                                   Max.-Head-Change                        Max.-Flux-Residual
  Residual-Control   Outer-Iter.   Inner-Iter.     Column Row Layer    Max.-Head-Change    Column Row Layer    Max.-Flux-Residual            L2-New               L2-Old           Solver-Max-Delh
          0                 1           5             1    1     3       0.7405792738E-03       2   14    1      -0.1106909546E+01      0.1803500411E+01      0.2416392998E+00      0.7405792738E-03
          0                 2           4             2   14     1      -0.6509453067E-04       2   14    1      -0.1214309789E+00      0.1891211779E+00      0.1803500411E+01     -0.6509453067E-04

    ------------------------------------------------
       NWT REQUIRED            2 OUTER ITERATIONS 
       AND A TOTAL OF          9 INNER ITERATIONS.
    ------------------------------------------------
                                                   Max.-Head-Change                        Max.-Flux-Residual
  Residual-Control   Outer-Iter.   Inner-Iter.     Column Row Layer    Max.-Head-Change    Column Row Layer    Max.-Flux-Residual            L2-New               L2-Old           Solver-Max-Delh
          0                 1           5             1    1     2       0.5666496238E-03       6   15    1       0.3071706886E+00      0.1090987807E+01      0.1891211779E+00      0.5666496238E-03
          0                 2           4             1    1     2      -0.4912648756E-04       2   14    1      -0.6957823527E-01      0.1282319875E+00      0.1090987807E+01     -0.4912648756E-04

    ------------------------------------------------
       NWT REQUIRED            2 OUTER ITERATIONS 
       AND A TOTAL OF          9 INNER ITERATIONS.
    ------------------------------------------------
                                                   Max.-Head-Change                        Max.-Flux-Residual
  Residual-Control   Outer-Iter.   Inner-Iter.     Column Row Layer    Max.-Head-Change    Column Row Layer    Max.-Flux-Residual            L2-New               L2-Old           Solver-Max-Delh
          0                 1           5             1    1     2       0.3538675569E-03       6   15    1       0.2101992171E+00      0.5980807886E+00      0.1282319875E+00      0.3538675569E-03
          0                 2           3             1    1     2      -0.2920094657E-04       3    1    1      -0.2228507481E-01      0.6223700219E-01      0.5980807886E+00     -0.2920094657E-04

    ------------------------------------------------
       NWT REQUIRED            2 OUTER ITERATIONS 
       AND A TOTAL OF          8 INNER ITERATIONS.
    ------------------------------------------------
                                                   Max.-Head-Change                        Max.-Flux-Residual
  Residual-Control   Outer-Iter.   Inner-Iter.     Column Row Layer    Max.-Head-Change    Column Row Layer    Max.-Flux-Residual            L2-New               L2-Old           Solver-Max-Delh
          0                 1           4             2    1     1       0.1746978761E-03       2   14    1       0.1633060449E+00      0.3288236706E+00      0.6223700219E-01      0.1746978761E-03
          0                 2           3             2    1     1      -0.1412433177E-04       6    1    1      -0.1608168642E-01      0.3808162925E-01      0.3288236706E+00     -0.1412433177E-04

    ------------------------------------------------
       NWT REQUIRED            2 OUTER ITERATIONS 
       AND A TOTAL OF          7 INNER ITERATIONS.
    ------------------------------------------------

 OUTPUT CONTROL FOR STRESS PERIOD     18   TIME STEP     1
    SAVE BUDGET
 UBDSV1 SAVING "         STORAGE" ON UNIT7013 AT TIME STEP    1, STRESS PERIOD  18
 UBDSV2 SAVING "   CONSTANT HEAD" ON UNIT7013 AT TIME STEP    1, STRESS PERIOD  18
 UBDSV1 SAVING "FLOW RIGHT FACE " ON UNIT7013 AT TIME STEP    1, STRESS PERIOD  18
 UBDSV1 SAVING "FLOW FRONT FACE " ON UNIT7013 AT TIME STEP    1, STRESS PERIOD  18
 UBDSV1 SAVING "FLOW LOWER FACE " ON UNIT7013 AT TIME STEP    1, STRESS PERIOD  18
 UBDSV4 SAVING "  STREAM LEAKAGE" ON UNIT7013 AT TIME STEP    1, STRESS PERIOD  18



 
 
 
 
 
 
 
 
 UBDSV3 SAVING "FARM  NET  RECH." ON UNIT7013 AT TIME STEP    1, STRESS PERIOD  18
 UBDSV4 SAVING " GHOST-NODE HEAD" ON UNIT7013 AT TIME STEP    1, STRESS PERIOD  18
1
  FLUX ACROSS PARENT-CHILD INTERFACE AT TIME STEP  1 IN STRESS PERIOD   18
  ------------------------------------------------------------------------
 G-N FLUX        PARENT        CHILD         DIFFERENCE      % DIFFERENCE
  RATE IN:      2.0297E+03    2.0294E+03     3.2043E-01        0.0158
 RATE OUT:      3.2774E+03    3.2771E+03     2.8882E-01        0.0088
 
 SOLVING FOR HEAD 
                                                   Max.-Head-Change                        Max.-Flux-Residual
  Residual-Control   Outer-Iter.   Inner-Iter.     Column Row Layer    Max.-Head-Change    Column Row Layer    Max.-Flux-Residual            L2-New               L2-Old           Solver-Max-Delh
          0                 1           9             4   14     1       0.3328324882E+00       4   14    1       0.4106963617E+03      0.8456031240E+03      0.3808162925E-01      0.3328324882E+00
          0                 2           8             4   14     1      -0.2663070267E-01       3   14    1      -0.3931724042E+02      0.7838381334E+02      0.8456031240E+03     -0.2663070267E-01
          0                 3           6             5   14     1      -0.1514673354E-02       4   14    1      -0.2181705289E+01      0.4470379073E+01      0.7838381334E+02     -0.1514673354E-02
          0                 4           4             5   14     1      -0.8999337250E-04       6   14    1      -0.1351373596E+00      0.2555421827E+00      0.4470379073E+01     -0.8999337250E-04

    ------------------------------------------------
       NWT REQUIRED            4 OUTER ITERATIONS 
       AND A TOTAL OF         27 INNER ITERATIONS.
    ------------------------------------------------
                                                   Max.-Head-Change                        Max.-Flux-Residual
  Residual-Control   Outer-Iter.   Inner-Iter.     Column Row Layer    Max.-Head-Change    Column Row Layer    Max.-Flux-Residual            L2-New               L2-Old           Solver-Max-Delh
          0                 1           9             3   14     1      -0.4488295666E+00       2   14    1      -0.2921694295E+03      0.6452055640E+03      0.2555421827E+00     -0.4488295666E+00
          0                 2           8             3   14     1       0.3795068375E-01       2   14    1       0.2800865299E+02      0.6227964425E+02      0.6452055640E+03      0.3795068375E-01
          0                 3           6             3   14     1       0.1903457705E-02       2   14    1       0.1392037512E+01      0.3108536247E+01      0.6227964425E+02      0.1903457705E-02
          0                 4           4             3   14     1       0.9447399612E-04       2   14    1       0.6956848758E-01      0.1548530790E+00      0.3108536247E+01      0.9447399612E-04

    ------------------------------------------------
       NWT REQUIRED            4 OUTER ITERATIONS 
       AND A TOTAL OF         27 INNER ITERATIONS.
    ------------------------------------------------
                                                   Max.-Head-Change                        Max.-Flux-Residual
  Residual-Control   Outer-Iter.   Inner-Iter.     Column Row Layer    Max.-Head-Change    Column Row Layer    Max.-Flux-Residual            L2-New               L2-Old           Solver-Max-Delh
          0                 1           9             6   14     1      -0.1014882504E+00       6   15    1      -0.8860555961E+02      0.1640260400E+03      0.1548530790E+00     -0.1014882504E+00
          0                 2           7             6   14     1       0.8789991117E-02       6   15    1       0.8868470283E+01      0.1643980625E+02      0.1640260400E+03      0.8789991117E-02
          0                 3           5             6   14     1       0.4374815204E-03       6   15    1       0.4462675101E+00      0.8186304756E+00      0.1643980625E+02      0.4374815204E-03
          0                 4           3             6   14     1       0.2101211274E-04       6   14    1       0.1748377184E-01      0.4158064094E-01      0.8186304756E+00      0.2101211274E-04

    ------------------------------------------------
       NWT REQUIRED            4 OUTER ITERATIONS 
       AND A TOTAL OF         24 INNER ITERATIONS.
    ------------------------------------------------
                                                   Max.-Head-Change                        Max.-Flux-Residual
  Residual-Control   Outer-Iter.   Inner-Iter.     Column Row Layer    Max.-Head-Change    Column Row Layer    Max.-Flux-Residual            L2-New               L2-Old           Solver-Max-Delh
          0                 1           8             6   15     1      -0.5823980656E-01       6   15    1      -0.5280514201E+02      0.9471272310E+02      0.4158064094E-01     -0.5823980656E-01
          0                 2           6             6   15     1       0.5041578194E-02       6   15    1       0.5288942423E+01      0.9497142629E+01      0.9471272310E+02      0.5041578194E-02
          0                 3           5             6   15     1       0.2492879960E-03       6   15    1       0.2587505128E+00      0.4713383786E+00      0.9497142629E+01      0.2492879960E-03
          0                 4           2             6   14     1       0.1151219716E-04       1   15    1       0.1256018231E-01      0.2841554699E-01      0.4713383786E+00      0.1151219716E-04

    ------------------------------------------------
       NWT REQUIRED            4 OUTER ITERATIONS 
       AND A TOTAL OF         21 INNER ITERATIONS.
    ------------------------------------------------
                                                   Max.-Head-Change                        Max.-Flux-Residual
  Residual-Control   Outer-Iter.   Inner-Iter.     Column Row Layer    Max.-Head-Change    Column Row Layer    Max.-Flux-Residual            L2-New               L2-Old           Solver-Max-Delh
          0                 1           7             6   15     1      -0.2977022795E-01       6   15    1      -0.2704149372E+02      0.4800650641E+02      0.2841554699E-01     -0.2977022795E-01
          0                 2           6             6   15     1       0.2577412256E-02       6   15    1       0.2708715254E+01      0.4809364783E+01      0.4800650641E+02      0.2577412256E-02
          0                 3           4             6   15     1       0.1293617397E-03       6   15    1       0.1348841783E+00      0.2439347587E+00      0.4809364783E+01      0.1293617397E-03
          0                 4           2             6    8     1       0.7425378598E-05       6   15    1       0.1015834860E-01      0.2265255773E-01      0.2439347587E+00      0.7425378598E-05

    ------------------------------------------------
       NWT REQUIRED            4 OUTER ITERATIONS 
       AND A TOTAL OF         19 INNER ITERATIONS.
    ------------------------------------------------
                                                   Max.-Head-Change                        Max.-Flux-Residual
  Residual-Control   Outer-Iter.   Inner-Iter.     Column Row Layer    Max.-Head-Change    Column Row Layer    Max.-Flux-Residual            L2-New               L2-Old           Solver-Max-Delh
          0                 1           7             6   15     1      -0.1339090046E-01       6   15    1      -0.1210214650E+02      0.2237993999E+02      0.2265255773E-01     -0.1339090046E-01
          0                 2           5             6   15     1       0.1163372132E-02       6   15    1       0.1220655256E+01      0.2241596140E+01      0.2237993999E+02      0.1163372132E-02
          0                 3           4             6   15     1       0.6088957409E-04       6   15    1       0.6382009591E-01      0.1158500720E+00      0.2241596140E+01      0.6088957409E-04

    ------------------------------------------------
       NWT REQUIRED            3 OUTER ITERATIONS 
       AND A TOTAL OF         16 INNER ITERATIONS.
    ------------------------------------------------
                                                   Max.-Head-Change                        Max.-Flux-Residual
  Residual-Control   Outer-Iter.   Inner-Iter.     Column Row Layer    Max.-Head-Change    Column Row Layer    Max.-Flux-Residual            L2-New               L2-Old           Solver-Max-Delh
          0                 1           6             1   14     1      -0.6504321552E-02       1   14    1      -0.6389809527E+01      0.1084469961E+02      0.1158500720E+00     -0.6504321552E-02
          0                 2           5             1   14     1       0.5561905382E-03       1   14    1       0.6339596866E+00      0.1082080053E+01      0.1084469961E+02      0.5561905382E-03
          0                 3           3             1   14     1       0.3015990399E-04       1   14    1       0.3340538777E-01      0.5692993272E-01      0.1082080053E+01      0.3015990399E-04

    ------------------------------------------------
       NWT REQUIRED            3 OUTER ITERATIONS 
       AND A TOTAL OF         14 INNER ITERATIONS.
    ------------------------------------------------
                                                   Max.-Head-Change                        Max.-Flux-Residual
  Residual-Control   Outer-Iter.   Inner-Iter.     Column Row Layer    Max.-Head-Change    Column Row Layer    Max.-Flux-Residual            L2-New               L2-Old           Solver-Max-Delh
          0                 1           6             1   14     1      -0.4077503195E-02       1   14    1      -0.4389148299E+01      0.5794055827E+01      0.5692993272E-01     -0.4077503195E-02
          0                 2           4             1   14     1       0.3498157543E-03       1   14    1       0.4363508163E+00      0.5739533988E+00      0.5794055827E+01      0.3498157543E-03
          0                 3           2             1   14     1       0.1303675191E-04       1   14    1       0.1786282728E-01      0.2961877148E-01      0.5739533988E+00      0.1303675191E-04

    ------------------------------------------------
       NWT REQUIRED            3 OUTER ITERATIONS 
       AND A TOTAL OF         12 INNER ITERATIONS.
    ------------------------------------------------
                                                   Max.-Head-Change                        Max.-Flux-Residual
  Residual-Control   Outer-Iter.   Inner-Iter.     Column Row Layer    Max.-Head-Change    Column Row Layer    Max.-Flux-Residual            L2-New               L2-Old           Solver-Max-Delh
          0                 1           5             1   14     1      -0.2129045267E-02       1   14    1      -0.2306627080E+01      0.3029990324E+01      0.2961877148E-01     -0.2129045267E-02
          0                 2           3             1   14     1       0.1776307695E-03       1   14    1       0.2252484285E+00      0.2930084114E+00      0.3029990324E+01      0.1776307695E-03
          0                 3           2             1   12     1       0.1017116699E-04       1   14    1       0.1094731886E-01      0.2345004398E-01      0.2930084114E+00      0.1017116699E-04

    ------------------------------------------------
       NWT REQUIRED            3 OUTER ITERATIONS 
       AND A TOTAL OF         10 INNER ITERATIONS.
    ------------------------------------------------
                                                   Max.-Head-Change                        Max.-Flux-Residual
  Residual-Control   Outer-Iter.   Inner-Iter.     Column Row Layer    Max.-Head-Change    Column Row Layer    Max.-Flux-Residual            L2-New               L2-Old           Solver-Max-Delh
          0                 1           4             1   14     1      -0.9101867411E-03       1   14    1      -0.9292787585E+00      0.1370071636E+01      0.2345004398E-01     -0.9101867411E-03
          0                 2           3             1   14     1       0.7437021718E-04       1   14    1       0.8741875971E-01      0.1318265264E+00      0.1370071636E+01      0.7437021718E-04

    ------------------------------------------------
       NWT REQUIRED            2 OUTER ITERATIONS 
       AND A TOTAL OF          7 INNER ITERATIONS.
    ------------------------------------------------
                                                   Max.-Head-Change                        Max.-Flux-Residual
  Residual-Control   Outer-Iter.   Inner-Iter.     Column Row Layer    Max.-Head-Change    Column Row Layer    Max.-Flux-Residual            L2-New               L2-Old           Solver-Max-Delh
          0                 1           4             1   14     1      -0.2630493999E-03       1   15    1      -0.2632450692E+00      0.4907183713E+00      0.1318265264E+00     -0.2630493999E-03
          0                 2           2             1   15     1       0.2374790333E-04       1   15    1       0.2975111047E-01      0.5336964250E-01      0.4907183713E+00      0.2374790333E-04

    ------------------------------------------------
       NWT REQUIRED            2 OUTER ITERATIONS 
       AND A TOTAL OF          6 INNER ITERATIONS.
    ------------------------------------------------
          0                 1           3             6   15     1       0.7993016346E-04       1   15    1      -0.1094537795E+00      0.1947069975E+00      0.5336964250E-01      0.7993016346E-04

    ------------------------------------------------
       NWT REQUIRED            1 OUTER ITERATIONS 
       AND A TOTAL OF          3 INNER ITERATIONS.
    ------------------------------------------------

 OUTPUT CONTROL FOR STRESS PERIOD     18   TIME STEP     2
    PRINT BUDGET
    SAVE HEAD FOR ALL LAYERS
    SAVE BUDGET
 UBDSV1 SAVING "         STORAGE" ON UNIT7013 AT TIME STEP    2, STRESS PERIOD  18
 UBDSV2 SAVING "   CONSTANT HEAD" ON UNIT7013 AT TIME STEP    2, STRESS PERIOD  18
 UBDSV1 SAVING "FLOW RIGHT FACE " ON UNIT7013 AT TIME STEP    2, STRESS PERIOD  18
 UBDSV1 SAVING "FLOW FRONT FACE " ON UNIT7013 AT TIME STEP    2, STRESS PERIOD  18
 UBDSV1 SAVING "FLOW LOWER FACE " ON UNIT7013 AT TIME STEP    2, STRESS PERIOD  18
 UBDSV4 SAVING "  STREAM LEAKAGE" ON UNIT7013 AT TIME STEP    2, STRESS PERIOD  18



 
 
 
 
 
 
 
 
 UBDSV3 SAVING "FARM  NET  RECH." ON UNIT7013 AT TIME STEP    2, STRESS PERIOD  18
 UBDSV4 SAVING " GHOST-NODE HEAD" ON UNIT7013 AT TIME STEP    2, STRESS PERIOD  18

 HEAD WILL BE SAVED ON UNIT 2213 AT END OF TIME STEP     2, STRESS PERIOD     18
1
  VOLUMETRIC BUDGET FOR ENTIRE MODEL AT END OF TIME STEP    2 IN STRESS PERIOD     18
  ------------------------------------------------------------------------------

     CUMULATIVE VOLUMES      L**3       RATES FOR THIS TIME STEP      L**3/T
     ------------------                 ------------------------

           IN:                                      IN:
           ---                                      ---
             STORAGE =      146646.1250               STORAGE =         763.9887
       CONSTANT HEAD =           0.0000         CONSTANT HEAD =           0.0000
      STREAM LEAKAGE =      511045.1875        STREAM LEAKAGE =         136.9575
          FARM WELLS =           0.0000            FARM WELLS =           0.0000
    FARM  NET  RECH. =      285035.4688      FARM  NET  RECH. =           0.0000
     GHOST-NODE HEAD =     4586720.0000       GHOST-NODE HEAD =        2259.7703

            TOTAL IN =     5529447.0000              TOTAL IN =        3160.7163

          OUT:                                     OUT:
          ----                                     ----
             STORAGE =     4087178.2500               STORAGE =           0.0000
       CONSTANT HEAD =           0.0000         CONSTANT HEAD =           0.0000
      STREAM LEAKAGE =           0.0000        STREAM LEAKAGE =           0.0000
          FARM WELLS =       45434.2578            FARM WELLS =           0.0000
    FARM  NET  RECH. =           0.0000      FARM  NET  RECH. =           0.0000
     GHOST-NODE HEAD =     1396830.7500       GHOST-NODE HEAD =        3160.7322

           TOTAL OUT =     5529443.0000             TOTAL OUT =        3160.7322

            IN - OUT =           4.0000              IN - OUT =      -1.5869E-02

 PERCENT DISCREPANCY =           0.00     PERCENT DISCREPANCY =          -0.00






          TIME SUMMARY AT END OF TIME STEP     2 IN STRESS PERIOD     18
                    SECONDS     MINUTES      HOURS       DAYS        YEARS
                    -----------------------------------------------------------
   TIME STEP LENGTH 1.31414E+06  21902.      365.04      15.210     4.16427E-02
 STRESS PERIOD TIME 2.62829E+06  43805.      730.08      30.420     8.32854E-02
         TOTAL TIME 4.73092E+07 7.88486E+05  13141.      547.56      1.4991    
1
1
  FLUX ACROSS PARENT-CHILD INTERFACE AT TIME STEP  2 IN STRESS PERIOD   18
  ------------------------------------------------------------------------
 G-N FLUX        PARENT        CHILD         DIFFERENCE      % DIFFERENCE
  RATE IN:      2.2601E+03    2.2598E+03     2.9028E-01        0.0128
 RATE OUT:      3.1611E+03    3.1607E+03     3.7329E-01        0.0118
1
                            STRESS PERIOD NO.     19, LENGTH =   30.42000    
                            -----------------------------------------------

                              NUMBER OF TIME STEPS =     2

                               MULTIPLIER FOR DELT =     1.000

                            INITIAL TIME STEP SIZE =   15.21000    

 REUSING STREAM SEGMENT DATA FROM LAST STRESS PERIOD

 Parameter:  WELLS1
 WELL NO. LAYER    ROW    COL  F-WELL ID    FARM ID         QMAX         QMAXRESET       LGRGRID         
 --------------------------------------------------------------------------------------------------------
       1      1      2      2          5          2      2.0000E+03              0              0
       2      1      5      5          6          2      1.0000E+03              0              0

 NUMBER OF ACTIVE FARM WELLS:        2

 FARM-ID  NUMBER OF WELLS PER FARM  TOTAL MAX.CAPACITY PER FARM
       1                         0                       0.0000
       2                         2                    3000.0000
       3                         0                       0.0000
       4                         0                       0.0000
       5                         0                       0.0000
       6                         0                       0.0000
       7                         0                       0.0000
       8                         0                       0.0000

Transpiratory and Evaporative Fractions of Crop Consumptive Use
    % Transpiration % Evap. for Precip. % Evap. for Irrig.
    3          0.000          1.000          1.000
    5          0.927          0.073          0.000

FRACTIONS OF IN-EFFICIENT LOSSES TO SW-RUNOFF FROM 
     PRECIPITATION:  IRRIGATION:
    3          0.600          0.500
    5          0.500          0.000
 
 SOLVING FOR HEAD 
                                                   Max.-Head-Change                        Max.-Flux-Residual
  Residual-Control   Outer-Iter.   Inner-Iter.     Column Row Layer    Max.-Head-Change    Column Row Layer    Max.-Flux-Residual            L2-New               L2-Old           Solver-Max-Delh
          0                 1           8             1    4     4      -0.1770188391E+00       1   14    1       0.3154653166E+03      0.3856819812E+03      0.1947069975E+00     -0.1770188391E+00
          0                 2           8             2   14     1       0.3146803471E-01       2   14    1       0.5594554481E+02      0.6737307735E+02      0.3856819812E+03      0.3146803471E-01
          0                 3           5             2   14     1      -0.2391017790E-02       2   14    1      -0.4982111430E+01      0.1054621446E+02      0.6737307735E+02     -0.2391017790E-02
          0                 4           4             2   14     1      -0.1156697517E-03       2   14    1      -0.2390333422E+00      0.5191731604E+00      0.1054621446E+02     -0.1156697517E-03
          0                 5           2             2   14     1      -0.7366186583E-05       2   14    1      -0.1243552793E-01      0.3021237815E-01      0.5191731604E+00     -0.7366186583E-05

    ------------------------------------------------
       NWT REQUIRED            5 OUTER ITERATIONS 
       AND A TOTAL OF         27 INNER ITERATIONS.
    ------------------------------------------------
                                                   Max.-Head-Change                        Max.-Flux-Residual
  Residual-Control   Outer-Iter.   Inner-Iter.     Column Row Layer    Max.-Head-Change    Column Row Layer    Max.-Flux-Residual            L2-New               L2-Old           Solver-Max-Delh
          0                 1           9             1   14     1      -0.5111185589E+00       1   14    1      -0.5459204859E+03      0.6760204855E+03      0.3021237815E-01     -0.5111185589E+00
          0                 2           8             1   14     1       0.4298845884E-01       1   14    1       0.5198029771E+02      0.6539273343E+02      0.6760204855E+03      0.4298845884E-01
          0                 3           6             1   14     1       0.2182167484E-02       1   14    1       0.2624791608E+01      0.3308402087E+01      0.6539273343E+02      0.2182167484E-02
          0                 4           4             1   14     1       0.1059227070E-03       1   14    1       0.1278540040E+00      0.1619161211E+00      0.3308402087E+01      0.1059227070E-03
          0                 5           2             1   14     1       0.7787344761E-05       1   14    1       0.9720676462E-02      0.1944504012E-01      0.1619161211E+00      0.7787344761E-05

    ------------------------------------------------
       NWT REQUIRED            5 OUTER ITERATIONS 
       AND A TOTAL OF         29 INNER ITERATIONS.
    ------------------------------------------------
                                                   Max.-Head-Change                        Max.-Flux-Residual
  Residual-Control   Outer-Iter.   Inner-Iter.     Column Row Layer    Max.-Head-Change    Column Row Layer    Max.-Flux-Residual            L2-New               L2-Old           Solver-Max-Delh
          0                 1           8             1   15     1      -0.6825479957E-01       1   15    1      -0.6075301134E+02      0.1341593840E+03      0.1944504012E-01     -0.6825479957E-01
          0                 2           7             1   15     1       0.5834538851E-02       1   15    1       0.6016194383E+01      0.1337040346E+02      0.1341593840E+03      0.5834538851E-02
          0                 3           5             1   15     1       0.2969245265E-03       1   15    1       0.3069686925E+00      0.6702123914E+00      0.1337040346E+02      0.2969245265E-03
          0                 4           3             2   15     1       0.1398833525E-04       2   15    1       0.1192967861E-01      0.3423953049E-01      0.6702123914E+00      0.1398833525E-04

    ------------------------------------------------
       NWT REQUIRED            4 OUTER ITERATIONS 
       AND A TOTAL OF         23 INNER ITERATIONS.
    ------------------------------------------------
                                                   Max.-Head-Change                        Max.-Flux-Residual
  Residual-Control   Outer-Iter.   Inner-Iter.     Column Row Layer    Max.-Head-Change    Column Row Layer    Max.-Flux-Residual            L2-New               L2-Old           Solver-Max-Delh
          0                 1           7             6   15     1      -0.3051080682E-01       6   15    1      -0.2769781874E+02      0.7225325018E+02      0.3423953049E-01     -0.3051080682E-01
          0                 2           6             6   15     1       0.2639135833E-02       6   15    1       0.2773853185E+01      0.7222289519E+01      0.7225325018E+02      0.2639135833E-02
          0                 3           4             6   15     1       0.1336619431E-03       6   15    1       0.1394586731E+00      0.3658618267E+00      0.7222289519E+01      0.1336619431E-03
          0                 4           2             1   11     1      -0.8650319801E-05       1   10    1      -0.1092853141E-01      0.2501011903E-01      0.3658618267E+00     -0.8650319801E-05

    ------------------------------------------------
       NWT REQUIRED            4 OUTER ITERATIONS 
       AND A TOTAL OF         19 INNER ITERATIONS.
    ------------------------------------------------
                                                   Max.-Head-Change                        Max.-Flux-Residual
  Residual-Control   Outer-Iter.   Inner-Iter.     Column Row Layer    Max.-Head-Change    Column Row Layer    Max.-Flux-Residual            L2-New               L2-Old           Solver-Max-Delh
          0                 1           7             1   11     1       0.2353400049E-01       1   10    1       0.2090449371E+02      0.4339779559E+02      0.2501011903E-01      0.2353400049E-01
          0                 2           5             1   11     1      -0.2016970569E-02       1   10    1      -0.2078344613E+01      0.4322695363E+01      0.4339779559E+02     -0.2016970569E-02
          0                 3           3             1   11     1      -0.1029714806E-03       1   11    1      -0.1090255242E+00      0.2180058198E+00      0.4322695363E+01     -0.1029714806E-03
          0                 4           2             1   10     1      -0.7420880092E-05       1   10    1      -0.1030556962E-01      0.1795012988E-01      0.2180058198E+00     -0.7420880092E-05

    ------------------------------------------------
       NWT REQUIRED            4 OUTER ITERATIONS 
       AND A TOTAL OF         17 INNER ITERATIONS.
    ------------------------------------------------
                                                   Max.-Head-Change                        Max.-Flux-Residual
  Residual-Control   Outer-Iter.   Inner-Iter.     Column Row Layer    Max.-Head-Change    Column Row Layer    Max.-Flux-Residual            L2-New               L2-Old           Solver-Max-Delh
          0                 1           6             1   11     1       0.1040736255E-01       1   11    1       0.8898287698E+01      0.1753723699E+02      0.1795012988E-01      0.1040736255E-01
          0                 2           5             1   11     1      -0.8943042546E-03       1   11    1      -0.8885223898E+00      0.1749687015E+01      0.1753723699E+02     -0.8943042546E-03
          0                 3           3             1   11     1      -0.4558590698E-04       1   12    1      -0.4722262896E-01      0.8878665947E-01      0.1749687015E+01     -0.4558590698E-04

    ------------------------------------------------
       NWT REQUIRED            3 OUTER ITERATIONS 
       AND A TOTAL OF         14 INNER ITERATIONS.
    ------------------------------------------------
                                                   Max.-Head-Change                        Max.-Flux-Residual
  Residual-Control   Outer-Iter.   Inner-Iter.     Column Row Layer    Max.-Head-Change    Column Row Layer    Max.-Flux-Residual            L2-New               L2-Old           Solver-Max-Delh
          0                 1           6             1   10     1       0.1615182137E-02       1   12    1       0.1418436208E+01      0.4031934207E+01      0.8878665947E-01      0.1615182137E-02
          0                 2           4             1   10     1      -0.1419739884E-03       1   12    1      -0.1448549813E+00      0.4036314897E+00      0.4031934207E+01     -0.1419739884E-03
          0                 3           2             1   15     1       0.7282338996E-05       1   13    1       0.9909130633E-02      0.2354570059E-01      0.4036314897E+00      0.7282338996E-05

    ------------------------------------------------
       NWT REQUIRED            3 OUTER ITERATIONS 
       AND A TOTAL OF         12 INNER ITERATIONS.
    ------------------------------------------------
                                                   Max.-Head-Change                        Max.-Flux-Residual
  Residual-Control   Outer-Iter.   Inner-Iter.     Column Row Layer    Max.-Head-Change    Column Row Layer    Max.-Flux-Residual            L2-New               L2-Old           Solver-Max-Delh
          0                 1           5             1   11     2      -0.1877534571E-02       1   10    1      -0.1102694548E+01      0.3222899636E+01      0.2354570059E-01     -0.1877534571E-02
          0                 2           4             1   11     2       0.1627163542E-03       1   11    1       0.1127846603E+00      0.3174370054E+00      0.3222899636E+01      0.1627163542E-03
          0                 3           2             1   11     2       0.7929754531E-05       1   10    1       0.8789667743E-02      0.2609988892E-01      0.3174370054E+00      0.7929754531E-05

    ------------------------------------------------
       NWT REQUIRED            3 OUTER ITERATIONS 
       AND A TOTAL OF         11 INNER ITERATIONS.
    ------------------------------------------------
                                                   Max.-Head-Change                        Max.-Flux-Residual
  Residual-Control   Outer-Iter.   Inner-Iter.     Column Row Layer    Max.-Head-Change    Column Row Layer    Max.-Flux-Residual            L2-New               L2-Old           Solver-Max-Delh
          0                 1           5             1   11     2      -0.1373605774E-02       1   11    1      -0.1111134873E+01      0.2558526787E+01      0.2609988892E-01     -0.1373605774E-02
          0                 2           4             1   11     2       0.1191237520E-03       1   11    1       0.1111812732E+00      0.2583482693E+00      0.2558526787E+01      0.1191237520E-03
          0                 3           2             6    2     1      -0.7740493658E-05       1   12    1       0.8874914492E-02      0.1816105691E-01      0.2583482693E+00     -0.7740493658E-05

    ------------------------------------------------
       NWT REQUIRED            3 OUTER ITERATIONS 
       AND A TOTAL OF         11 INNER ITERATIONS.
    ------------------------------------------------
                                                   Max.-Head-Change                        Max.-Flux-Residual
  Residual-Control   Outer-Iter.   Inner-Iter.     Column Row Layer    Max.-Head-Change    Column Row Layer    Max.-Flux-Residual            L2-New               L2-Old           Solver-Max-Delh
          0                 1           5             1   11     1      -0.5906609830E-03       1   11    1      -0.5207332229E+00      0.1193952798E+01      0.1816105691E-01     -0.5906609830E-03
          0                 2           3             1   11     1       0.5150394727E-04       1   12    1       0.5491868092E-01      0.1215517896E+00      0.1193952798E+01      0.5150394727E-04

    ------------------------------------------------
       NWT REQUIRED            2 OUTER ITERATIONS 
       AND A TOTAL OF          8 INNER ITERATIONS.
    ------------------------------------------------
                                                   Max.-Head-Change                        Max.-Flux-Residual
  Residual-Control   Outer-Iter.   Inner-Iter.     Column Row Layer    Max.-Head-Change    Column Row Layer    Max.-Flux-Residual            L2-New               L2-Old           Solver-Max-Delh
          0                 1           4             1   11     3       0.2311859030E-03       6   15    1       0.1826569932E+00      0.3854043888E+00      0.1215517896E+00      0.2311859030E-03
          0                 2           3             1   11     3      -0.1895809214E-04       6   15    1      -0.1737654913E-01      0.4479624601E-01      0.3854043888E+00     -0.1895809214E-04

    ------------------------------------------------
       NWT REQUIRED            2 OUTER ITERATIONS 
       AND A TOTAL OF          7 INNER ITERATIONS.
    ------------------------------------------------

 OUTPUT CONTROL FOR STRESS PERIOD     19   TIME STEP     1
    SAVE BUDGET
 UBDSV1 SAVING "         STORAGE" ON UNIT7013 AT TIME STEP    1, STRESS PERIOD  19
 UBDSV2 SAVING "   CONSTANT HEAD" ON UNIT7013 AT TIME STEP    1, STRESS PERIOD  19
 UBDSV1 SAVING "FLOW RIGHT FACE " ON UNIT7013 AT TIME STEP    1, STRESS PERIOD  19
 UBDSV1 SAVING "FLOW FRONT FACE " ON UNIT7013 AT TIME STEP    1, STRESS PERIOD  19
 UBDSV1 SAVING "FLOW LOWER FACE " ON UNIT7013 AT TIME STEP    1, STRESS PERIOD  19
 UBDSV4 SAVING "  STREAM LEAKAGE" ON UNIT7013 AT TIME STEP    1, STRESS PERIOD  19



 
 
 
 
 
 
 
 
 UBDSV3 SAVING "FARM  NET  RECH." ON UNIT7013 AT TIME STEP    1, STRESS PERIOD  19
 UBDSV4 SAVING " GHOST-NODE HEAD" ON UNIT7013 AT TIME STEP    1, STRESS PERIOD  19
1
  FLUX ACROSS PARENT-CHILD INTERFACE AT TIME STEP  1 IN STRESS PERIOD   19
  ------------------------------------------------------------------------
 G-N FLUX        PARENT        CHILD         DIFFERENCE      % DIFFERENCE
  RATE IN:      2.2213E+03    2.2207E+03     6.0791E-01        0.0274
 RATE OUT:      3.0585E+03    3.0576E+03     9.4678E-01        0.0310
 
 SOLVING FOR HEAD 
                                                   Max.-Head-Change                        Max.-Flux-Residual
  Residual-Control   Outer-Iter.   Inner-Iter.     Column Row Layer    Max.-Head-Change    Column Row Layer    Max.-Flux-Residual            L2-New               L2-Old           Solver-Max-Delh
          0                 1           9             1   14     1       0.2042031962E+00       1   14    1       0.3472287793E+03      0.4053946139E+03      0.4479624601E-01      0.2042031962E+00
          0                 2           7             1   14     1      -0.1767140053E-01       1   14    1      -0.3518410127E+02      0.4096970317E+02      0.4053946139E+03     -0.1767140053E-01
          0                 3           5             1   14     1      -0.8967682242E-03       1   14    1      -0.1776370856E+01      0.2061763697E+01      0.4096970317E+02     -0.8967682242E-03
          0                 4           3             1   14     1      -0.4362322231E-04       1   14    1      -0.8685514797E-01      0.1008854412E+00      0.2061763697E+01     -0.4362322231E-04

    ------------------------------------------------
       NWT REQUIRED            4 OUTER ITERATIONS 
       AND A TOTAL OF         24 INNER ITERATIONS.
    ------------------------------------------------
                                                   Max.-Head-Change                        Max.-Flux-Residual
  Residual-Control   Outer-Iter.   Inner-Iter.     Column Row Layer    Max.-Head-Change    Column Row Layer    Max.-Flux-Residual            L2-New               L2-Old           Solver-Max-Delh
          0                 1           9             1   14     1      -0.4024024665E+00       1   14    1      -0.4315117474E+03      0.5746754540E+03      0.1008854412E+00     -0.4024024665E+00
          0                 2           8             1   14     1       0.3400907810E-01       1   14    1       0.4149482068E+02      0.5600154249E+02      0.5746754540E+03      0.3400907810E-01
          0                 3           6             1   14     1       0.1721460607E-02       1   14    1       0.2093498025E+01      0.2823766775E+01      0.5600154249E+02      0.1721460607E-02
          0                 4           4             1   14     1       0.8898905594E-04       1   14    1       0.1050769358E+00      0.1469216705E+00      0.2823766775E+01      0.8898905594E-04

    ------------------------------------------------
       NWT REQUIRED            4 OUTER ITERATIONS 
       AND A TOTAL OF         27 INNER ITERATIONS.
    ------------------------------------------------
                                                   Max.-Head-Change                        Max.-Flux-Residual
  Residual-Control   Outer-Iter.   Inner-Iter.     Column Row Layer    Max.-Head-Change    Column Row Layer    Max.-Flux-Residual            L2-New               L2-Old           Solver-Max-Delh
          0                 1           8             1   14     1      -0.6939112381E-01       1   15    1      -0.5955843691E+02      0.1304299037E+03      0.1469216705E+00     -0.6939112381E-01
          0                 2           7             1   14     1       0.5923268175E-02       1   15    1       0.5893211204E+01      0.1298369943E+02      0.1304299037E+03      0.5923268175E-02
          0                 3           5             1   14     1       0.3011909773E-03       1   15    1       0.2984103902E+00      0.6517049397E+00      0.1298369943E+02      0.3011909773E-03
          0                 4           3             1   15     1       0.2057384633E-04       1   15    1       0.2393846097E-01      0.4411032683E-01      0.6517049397E+00      0.2057384633E-04

    ------------------------------------------------
       NWT REQUIRED            4 OUTER ITERATIONS 
       AND A TOTAL OF         23 INNER ITERATIONS.
    ------------------------------------------------
                                                   Max.-Head-Change                        Max.-Flux-Residual
  Residual-Control   Outer-Iter.   Inner-Iter.     Column Row Layer    Max.-Head-Change    Column Row Layer    Max.-Flux-Residual            L2-New               L2-Old           Solver-Max-Delh
          0                 1           7             6   15     1      -0.2536667108E-01       6   15    1      -0.2283542163E+02      0.6066436874E+02      0.4411032683E-01     -0.2536667108E-01
          0                 2           6             6   15     1       0.2192473849E-02       6   15    1       0.2281347875E+01      0.6068262177E+01      0.6066436874E+02      0.2192473849E-02
          0                 3           4             6   15     1       0.1062738872E-03       6   15    1       0.1095289342E+00      0.2992822335E+00      0.6068262177E+01      0.1062738872E-03
          0                 4           2             1    1     1       0.7633765598E-05       1   12    1      -0.1111214492E-01      0.2998717295E-01      0.2992822335E+00      0.7633765598E-05

    ------------------------------------------------
       NWT REQUIRED            4 OUTER ITERATIONS 
       AND A TOTAL OF         19 INNER ITERATIONS.
    ------------------------------------------------
                                                   Max.-Head-Change                        Max.-Flux-Residual
  Residual-Control   Outer-Iter.   Inner-Iter.     Column Row Layer    Max.-Head-Change    Column Row Layer    Max.-Flux-Residual            L2-New               L2-Old           Solver-Max-Delh
          0                 1           7             1   11     1       0.2345688593E-01       1   10    1       0.2021885101E+02      0.4032470959E+02      0.2998717295E-01      0.2345688593E-01
          0                 2           5             1   11     1      -0.2018899882E-02       1   11    1      -0.2019857691E+01      0.4032076258E+01      0.4032470959E+02     -0.2018899882E-02
          0                 3           3             1   11     1      -0.1003446872E-03       1   12    1      -0.1005240544E+00      0.2000815255E+00      0.4032076258E+01     -0.1003446872E-03
          0                 4           2             1   10     1      -0.6989182694E-05       1   12    1      -0.9379398311E-02      0.1701957597E-01      0.2000815255E+00     -0.6989182694E-05

    ------------------------------------------------
       NWT REQUIRED            4 OUTER ITERATIONS 
       AND A TOTAL OF         17 INNER ITERATIONS.
    ------------------------------------------------
                                                   Max.-Head-Change                        Max.-Flux-Residual
  Residual-Control   Outer-Iter.   Inner-Iter.     Column Row Layer    Max.-Head-Change    Column Row Layer    Max.-Flux-Residual            L2-New               L2-Old           Solver-Max-Delh
          0                 1           6             1   11     1       0.1187702536E-01       1   11    1       0.9682353975E+01      0.1810019788E+02      0.1701957597E-01      0.1187702536E-01
          0                 2           5             1   11     1      -0.1018587928E-02       1   10    1      -0.9647063933E+00      0.1802365372E+01      0.1810019788E+02     -0.1018587928E-02
          0                 3           3             1   11     1      -0.5251530668E-04       1   12    1      -0.5332532059E-01      0.9287842258E-01      0.1802365372E+01     -0.5251530668E-04

    ------------------------------------------------
       NWT REQUIRED            3 OUTER ITERATIONS 
       AND A TOTAL OF         14 INNER ITERATIONS.
    ------------------------------------------------
                                                   Max.-Head-Change                        Max.-Flux-Residual
  Residual-Control   Outer-Iter.   Inner-Iter.     Column Row Layer    Max.-Head-Change    Column Row Layer    Max.-Flux-Residual            L2-New               L2-Old           Solver-Max-Delh
          0                 1           6             1   11     1       0.2804000582E-02       1   11    1       0.2181940665E+01      0.4397649863E+01      0.9287842258E-01      0.2804000582E-02
          0                 2           4             1   11     1      -0.2464243495E-03       1   11    1      -0.2244712594E+00      0.4435593979E+00      0.4397649863E+01     -0.2464243495E-03
          0                 3           2             1   11     1      -0.1013718889E-04       1   10    1      -0.1104737120E-01      0.2253435960E-01      0.4435593979E+00     -0.1013718889E-04

    ------------------------------------------------
       NWT REQUIRED            3 OUTER ITERATIONS 
       AND A TOTAL OF         12 INNER ITERATIONS.
    ------------------------------------------------
                                                   Max.-Head-Change                        Max.-Flux-Residual
  Residual-Control   Outer-Iter.   Inner-Iter.     Column Row Layer    Max.-Head-Change    Column Row Layer    Max.-Flux-Residual            L2-New               L2-Old           Solver-Max-Delh
          0                 1           5             1   11     2      -0.1373005917E-02       1   10    1      -0.7319704143E+00      0.2658658650E+01      0.2253435960E-01     -0.1373005917E-02
          0                 2           4             1   11     2       0.1194040619E-03       1   12    1       0.7592956547E-01      0.2717613969E+00      0.2658658650E+01      0.1194040619E-03
          0                 3           2             6    7     1      -0.7820321359E-05       1   11    1       0.9579956066E-02      0.2259324726E-01      0.2717613969E+00     -0.7820321359E-05

    ------------------------------------------------
       NWT REQUIRED            3 OUTER ITERATIONS 
       AND A TOTAL OF         11 INNER ITERATIONS.
    ------------------------------------------------
                                                   Max.-Head-Change                        Max.-Flux-Residual
  Residual-Control   Outer-Iter.   Inner-Iter.     Column Row Layer    Max.-Head-Change    Column Row Layer    Max.-Flux-Residual            L2-New               L2-Old           Solver-Max-Delh
          0                 1           5             1   11     2      -0.1298270266E-02       1   12    1      -0.1022122011E+01      0.2441016952E+01      0.2259324726E-01     -0.1298270266E-02
          0                 2           4             1   11     2       0.1121920311E-03       1   12    1       0.1023151262E+00      0.2442025065E+00      0.2441016952E+01      0.1121920311E-03
          0                 3           2             1   11     1       0.8441823204E-05       1   10    1       0.9341686033E-02      0.1867300061E-01      0.2442025065E+00      0.8441823204E-05

    ------------------------------------------------
       NWT REQUIRED            3 OUTER ITERATIONS 
       AND A TOTAL OF         11 INNER ITERATIONS.
    ------------------------------------------------
                                                   Max.-Head-Change                        Max.-Flux-Residual
  Residual-Control   Outer-Iter.   Inner-Iter.     Column Row Layer    Max.-Head-Change    Column Row Layer    Max.-Flux-Residual            L2-New               L2-Old           Solver-Max-Delh
          0                 1           5             1   11     1      -0.6185200621E-03       1   11    1      -0.5508586151E+00      0.1259595821E+01      0.1867300061E-01     -0.6185200621E-03
          0                 2           3             1   11     1       0.5662943924E-04       1   11    1       0.6100064842E-01      0.1272820509E+00      0.1259595821E+01      0.5662943924E-04

    ------------------------------------------------
       NWT REQUIRED            2 OUTER ITERATIONS 
       AND A TOTAL OF          8 INNER ITERATIONS.
    ------------------------------------------------
                                                   Max.-Head-Change                        Max.-Flux-Residual
  Residual-Control   Outer-Iter.   Inner-Iter.     Column Row Layer    Max.-Head-Change    Column Row Layer    Max.-Flux-Residual            L2-New               L2-Old           Solver-Max-Delh
          0                 1           4             1   12     3       0.1900908243E-03       6   15    1       0.1634892458E+00      0.4157760022E+00      0.1272820509E+00      0.1900908243E-03
          0                 2           3             1   12     3      -0.1613985140E-04       1   15    1      -0.1697825704E-01      0.5045220166E-01      0.4157760022E+00     -0.1613985140E-04

    ------------------------------------------------
       NWT REQUIRED            2 OUTER ITERATIONS 
       AND A TOTAL OF          7 INNER ITERATIONS.
    ------------------------------------------------

 OUTPUT CONTROL FOR STRESS PERIOD     19   TIME STEP     2
    SAVE BUDGET
 UBDSV1 SAVING "         STORAGE" ON UNIT7013 AT TIME STEP    2, STRESS PERIOD  19
 UBDSV2 SAVING "   CONSTANT HEAD" ON UNIT7013 AT TIME STEP    2, STRESS PERIOD  19
 UBDSV1 SAVING "FLOW RIGHT FACE " ON UNIT7013 AT TIME STEP    2, STRESS PERIOD  19
 UBDSV1 SAVING "FLOW FRONT FACE " ON UNIT7013 AT TIME STEP    2, STRESS PERIOD  19
 UBDSV1 SAVING "FLOW LOWER FACE " ON UNIT7013 AT TIME STEP    2, STRESS PERIOD  19
 UBDSV4 SAVING "  STREAM LEAKAGE" ON UNIT7013 AT TIME STEP    2, STRESS PERIOD  19



 
 
 
 
 
 
 
 
 UBDSV3 SAVING "FARM  NET  RECH." ON UNIT7013 AT TIME STEP    2, STRESS PERIOD  19
 UBDSV4 SAVING " GHOST-NODE HEAD" ON UNIT7013 AT TIME STEP    2, STRESS PERIOD  19
1
  VOLUMETRIC BUDGET FOR ENTIRE MODEL AT END OF TIME STEP    2 IN STRESS PERIOD     19
  ------------------------------------------------------------------------------

     CUMULATIVE VOLUMES      L**3       RATES FOR THIS TIME STEP      L**3/T
     ------------------                 ------------------------

           IN:                                      IN:
           ---                                      ---
             STORAGE =      171404.0000               STORAGE =         790.8771
       CONSTANT HEAD =           0.0000         CONSTANT HEAD =           0.0000
      STREAM LEAKAGE =      511045.1875        STREAM LEAKAGE =           0.0000
          FARM WELLS =           0.0000            FARM WELLS =           0.0000
    FARM  NET  RECH. =      285035.4688      FARM  NET  RECH. =           0.0000
     GHOST-NODE HEAD =     4654186.0000       GHOST-NODE HEAD =        2214.9641

            TOTAL IN =     5621670.5000              TOTAL IN =        3005.8413

          OUT:                                     OUT:
          ----                                     ----
             STORAGE =     4087178.2500               STORAGE =           0.0000
       CONSTANT HEAD =           0.0000         CONSTANT HEAD =           0.0000
      STREAM LEAKAGE =           0.0000        STREAM LEAKAGE =           0.0000
          FARM WELLS =       45434.2578            FARM WELLS =           0.0000
    FARM  NET  RECH. =           0.0000      FARM  NET  RECH. =           0.0000
     GHOST-NODE HEAD =     1489055.0000       GHOST-NODE HEAD =        3005.8391

           TOTAL OUT =     5621667.5000             TOTAL OUT =        3005.8391

            IN - OUT =           3.0000              IN - OUT =       2.1973E-03

 PERCENT DISCREPANCY =           0.00     PERCENT DISCREPANCY =           0.00






          TIME SUMMARY AT END OF TIME STEP     2 IN STRESS PERIOD     19
                    SECONDS     MINUTES      HOURS       DAYS        YEARS
                    -----------------------------------------------------------
   TIME STEP LENGTH 1.31414E+06  21902.      365.04      15.210     4.16427E-02
 STRESS PERIOD TIME 2.62829E+06  43805.      730.08      30.420     8.32854E-02
         TOTAL TIME 4.99375E+07 8.32291E+05  13872.      577.98      1.5824    
1
1
  FLUX ACROSS PARENT-CHILD INTERFACE AT TIME STEP  2 IN STRESS PERIOD   19
  ------------------------------------------------------------------------
 G-N FLUX        PARENT        CHILD         DIFFERENCE      % DIFFERENCE
  RATE IN:      2.2155E+03    2.2150E+03     5.5566E-01        0.0251
 RATE OUT:      3.0068E+03    3.0058E+03     9.5801E-01        0.0319
1
                            STRESS PERIOD NO.     20, LENGTH =   30.42000    
                            -----------------------------------------------

                              NUMBER OF TIME STEPS =     2

                               MULTIPLIER FOR DELT =     1.000

                            INITIAL TIME STEP SIZE =   15.21000    

 REUSING STREAM SEGMENT DATA FROM LAST STRESS PERIOD

 Parameter:  WELLS1
 WELL NO. LAYER    ROW    COL  F-WELL ID    FARM ID         QMAX         QMAXRESET       LGRGRID         
 --------------------------------------------------------------------------------------------------------
       1      1      2      2          5          2      2.0000E+03              0              0
       2      1      5      5          6          2      1.0000E+03              0              0

 NUMBER OF ACTIVE FARM WELLS:        2

 FARM-ID  NUMBER OF WELLS PER FARM  TOTAL MAX.CAPACITY PER FARM
       1                         0                       0.0000
       2                         2                    3000.0000
       3                         0                       0.0000
       4                         0                       0.0000
       5                         0                       0.0000
       6                         0                       0.0000
       7                         0                       0.0000
       8                         0                       0.0000

Transpiratory and Evaporative Fractions of Crop Consumptive Use
    % Transpiration % Evap. for Precip. % Evap. for Irrig.
    3          0.000          1.000          1.000
    5          0.927          0.073          0.000

FRACTIONS OF IN-EFFICIENT LOSSES TO SW-RUNOFF FROM 
     PRECIPITATION:  IRRIGATION:
    3          0.600          0.500
    5          0.500          0.000
 
 SOLVING FOR HEAD 
                                                   Max.-Head-Change                        Max.-Flux-Residual
  Residual-Control   Outer-Iter.   Inner-Iter.     Column Row Layer    Max.-Head-Change    Column Row Layer    Max.-Flux-Residual            L2-New               L2-Old           Solver-Max-Delh
          0                 1           9             1    4     4      -0.1698452346E+00       6    1    1      -0.9069267962E+02      0.2332658381E+03      0.5045220166E-01     -0.1698452346E+00
          0                 2           7             1    4     4       0.1466376238E-01       6    1    1       0.9119326055E+01      0.2344893601E+02      0.2332658381E+03      0.1466376238E-01
          0                 3           5             1    4     4       0.7324990521E-03       6    1    1       0.4474926151E+00      0.1164854674E+01      0.2344893601E+02      0.7324990521E-03
          0                 4           3             1    4     4       0.4155792125E-04       6    1    1       0.2485105355E-01      0.6118832395E-01      0.1164854674E+01      0.4155792125E-04

    ------------------------------------------------
       NWT REQUIRED            4 OUTER ITERATIONS 
       AND A TOTAL OF         24 INNER ITERATIONS.
    ------------------------------------------------
                                                   Max.-Head-Change                        Max.-Flux-Residual
  Residual-Control   Outer-Iter.   Inner-Iter.     Column Row Layer    Max.-Head-Change    Column Row Layer    Max.-Flux-Residual            L2-New               L2-Old           Solver-Max-Delh
          0                 1           9             1   12     1      -0.2355337418E+00       1   15    1      -0.1719211960E+03      0.3922698677E+03      0.6118832395E-01     -0.2355337418E+00
          0                 2           8             1   12     1       0.2013311752E-01       1   15    1       0.1697247777E+02      0.3868005255E+02      0.3922698677E+03      0.2013311752E-01
          0                 3           5             1   12     1       0.1011149142E-02       1   15    1       0.8556253380E+00      0.1944118593E+01      0.3868005255E+02      0.1011149142E-02
          0                 4           4             1   12     1       0.5442451629E-04       1   15    1       0.4948519950E-01      0.1069260465E+00      0.1944118593E+01      0.5442451629E-04

    ------------------------------------------------
       NWT REQUIRED            4 OUTER ITERATIONS 
       AND A TOTAL OF         26 INNER ITERATIONS.
    ------------------------------------------------
                                                   Max.-Head-Change                        Max.-Flux-Residual
  Residual-Control   Outer-Iter.   Inner-Iter.     Column Row Layer    Max.-Head-Change    Column Row Layer    Max.-Flux-Residual            L2-New               L2-Old           Solver-Max-Delh
          0                 1           8             1   14     1      -0.5816835163E-01       1   15    1      -0.5198671959E+02      0.1111721989E+03      0.1069260465E+00     -0.5816835163E-01
          0                 2           7             1   14     1       0.4971504400E-02       1   15    1       0.5149421338E+01      0.1107954866E+02      0.1111721989E+03      0.4971504400E-02
          0                 3           5             1   14     1       0.2517542601E-03       1   15    1       0.2568487718E+00      0.5563496983E+00      0.1107954866E+02      0.2517542601E-03
          0                 4           3             1   14     1       0.9852991284E-05       6   15    1       0.1004225164E-01      0.3102790512E-01      0.5563496983E+00      0.9852991284E-05

    ------------------------------------------------
       NWT REQUIRED            4 OUTER ITERATIONS 
       AND A TOTAL OF         23 INNER ITERATIONS.
    ------------------------------------------------
                                                   Max.-Head-Change                        Max.-Flux-Residual
  Residual-Control   Outer-Iter.   Inner-Iter.     Column Row Layer    Max.-Head-Change    Column Row Layer    Max.-Flux-Residual            L2-New               L2-Old           Solver-Max-Delh
          0                 1           7             1   11     1       0.3019092550E-01       1   10    1       0.2825887437E+02      0.6234071117E+02      0.3102790512E-01      0.3019092550E-01
          0                 2           6             1   11     1      -0.2597764471E-02       1   10    1      -0.2816847414E+01      0.6239220393E+01      0.6234071117E+02     -0.2597764471E-02
          0                 3           4             1   11     1      -0.1310271745E-03       1   10    1      -0.1436360304E+00      0.3134712298E+00      0.6239220393E+01     -0.1310271745E-03
          0                 4           2             1   11     1      -0.1016244353E-04       1   10    1      -0.1073107775E-01      0.2489634024E-01      0.3134712298E+00     -0.1016244353E-04

    ------------------------------------------------
       NWT REQUIRED            4 OUTER ITERATIONS 
       AND A TOTAL OF         19 INNER ITERATIONS.
    ------------------------------------------------
                                                   Max.-Head-Change                        Max.-Flux-Residual
  Residual-Control   Outer-Iter.   Inner-Iter.     Column Row Layer    Max.-Head-Change    Column Row Layer    Max.-Flux-Residual            L2-New               L2-Old           Solver-Max-Delh
          0                 1           7             1   11     1       0.2790547658E-01       1   10    1       0.2271288019E+02      0.4275106152E+02      0.2489634024E-01      0.2790547658E-01
          0                 2           6             1   11     1      -0.2399376385E-02       1   11    1      -0.2264694292E+01      0.4259427713E+01      0.4275106152E+02     -0.2399376385E-02
          0                 3           4             1   11     1      -0.1217948454E-03       1   11    1      -0.1162246610E+00      0.2167778231E+00      0.4259427713E+01     -0.1217948454E-03
          0                 4           2             1   10     1      -0.6609425493E-05       1   10    1      -0.9321232908E-02      0.1805818124E-01      0.2167778231E+00     -0.6609425493E-05

    ------------------------------------------------
       NWT REQUIRED            4 OUTER ITERATIONS 
       AND A TOTAL OF         19 INNER ITERATIONS.
    ------------------------------------------------
                                                   Max.-Head-Change                        Max.-Flux-Residual
  Residual-Control   Outer-Iter.   Inner-Iter.     Column Row Layer    Max.-Head-Change    Column Row Layer    Max.-Flux-Residual            L2-New               L2-Old           Solver-Max-Delh
          0                 1           7             1   11     1       0.1269182671E-01       1   11    1       0.9793695045E+01      0.1807840430E+02      0.1805818124E-01      0.1269182671E-01
          0                 2           5             1   11     1      -0.1088836870E-02       1   11    1      -0.9747723133E+00      0.1796310475E+01      0.1807840430E+02     -0.1088836870E-02
          0                 3           3             1   11     1      -0.5592163291E-04       1   12    1      -0.5220644665E-01      0.9103016756E-01      0.1796310475E+01     -0.5592163291E-04

    ------------------------------------------------
       NWT REQUIRED            3 OUTER ITERATIONS 
       AND A TOTAL OF         15 INNER ITERATIONS.
    ------------------------------------------------
                                                   Max.-Head-Change                        Max.-Flux-Residual
  Residual-Control   Outer-Iter.   Inner-Iter.     Column Row Layer    Max.-Head-Change    Column Row Layer    Max.-Flux-Residual            L2-New               L2-Old           Solver-Max-Delh
          0                 1           6             1   11     1       0.2474724813E-02       1   12    1       0.1684090287E+01      0.4158838607E+01      0.9103016756E-01      0.2474724813E-02
          0                 2           4             1   11     1      -0.2101517866E-03       1   10    1      -0.1711054380E+00      0.4111323209E+00      0.4158838607E+01     -0.2101517866E-03
          0                 3           3             6    9     1      -0.1060088646E-04       1   15    1      -0.1343043760E-01      0.3050793490E-01      0.4111323209E+00     -0.1060088646E-04

    ------------------------------------------------
       NWT REQUIRED            3 OUTER ITERATIONS 
       AND A TOTAL OF         13 INNER ITERATIONS.
    ------------------------------------------------
                                                   Max.-Head-Change                        Max.-Flux-Residual
  Residual-Control   Outer-Iter.   Inner-Iter.     Column Row Layer    Max.-Head-Change    Column Row Layer    Max.-Flux-Residual            L2-New               L2-Old           Solver-Max-Delh
          0                 1           5             1   11     2      -0.1665750353E-02       1   10    1      -0.1099798534E+01      0.3339987877E+01      0.3050793490E-01     -0.1665750353E-02
          0                 2           4             1   11     2       0.1455568800E-03       1   10    1       0.1110379621E+00      0.3362888091E+00      0.3339987877E+01      0.1455568800E-03
          0                 3           2             6    9     1      -0.9291786597E-05       1   12    1       0.9724952979E-02      0.2753963435E-01      0.3362888091E+00     -0.9291786597E-05

    ------------------------------------------------
       NWT REQUIRED            3 OUTER ITERATIONS 
       AND A TOTAL OF         11 INNER ITERATIONS.
    ------------------------------------------------
                                                   Max.-Head-Change                        Max.-Flux-Residual
  Residual-Control   Outer-Iter.   Inner-Iter.     Column Row Layer    Max.-Head-Change    Column Row Layer    Max.-Flux-Residual            L2-New               L2-Old           Solver-Max-Delh
          0                 1           5             1   11     2      -0.1354794464E-02       1   10    1      -0.1167774628E+01      0.2696910352E+01      0.2753963435E-01     -0.1354794464E-02
          0                 2           4             1   11     2       0.1180798111E-03       1   10    1       0.1194059061E+00      0.2742116470E+00      0.2696910352E+01      0.1180798111E-03
          0                 3           2             1   11     1       0.6125235674E-05       1   11    1       0.8516037604E-02      0.1596357734E-01      0.2742116470E+00      0.6125235674E-05

    ------------------------------------------------
       NWT REQUIRED            3 OUTER ITERATIONS 
       AND A TOTAL OF         11 INNER ITERATIONS.
    ------------------------------------------------
                                                   Max.-Head-Change                        Max.-Flux-Residual
  Residual-Control   Outer-Iter.   Inner-Iter.     Column Row Layer    Max.-Head-Change    Column Row Layer    Max.-Flux-Residual            L2-New               L2-Old           Solver-Max-Delh
          0                 1           5             1   11     1      -0.6121749644E-03       1   12    1      -0.5596104172E+00      0.1275757699E+01      0.1596357734E-01     -0.6121749644E-03
          0                 2           3             1   11     1       0.5144720389E-04       1   12    1       0.5935402575E-01      0.1302174909E+00      0.1275757699E+01      0.5144720389E-04

    ------------------------------------------------
       NWT REQUIRED            2 OUTER ITERATIONS 
       AND A TOTAL OF          8 INNER ITERATIONS.
    ------------------------------------------------
                                                   Max.-Head-Change                        Max.-Flux-Residual
  Residual-Control   Outer-Iter.   Inner-Iter.     Column Row Layer    Max.-Head-Change    Column Row Layer    Max.-Flux-Residual            L2-New               L2-Old           Solver-Max-Delh
          0                 1           4             1   11     3       0.2372995949E-03       6   15    1       0.1533654492E+00      0.3976639198E+00      0.1302174909E+00      0.2372995949E-03
          0                 2           3             1   11     3      -0.1969453855E-04       6   15    1      -0.1870040980E-01      0.4669601778E-01      0.3976639198E+00     -0.1969453855E-04

    ------------------------------------------------
       NWT REQUIRED            2 OUTER ITERATIONS 
       AND A TOTAL OF          7 INNER ITERATIONS.
    ------------------------------------------------

 OUTPUT CONTROL FOR STRESS PERIOD     20   TIME STEP     1
    SAVE BUDGET
 UBDSV1 SAVING "         STORAGE" ON UNIT7013 AT TIME STEP    1, STRESS PERIOD  20
 UBDSV2 SAVING "   CONSTANT HEAD" ON UNIT7013 AT TIME STEP    1, STRESS PERIOD  20
 UBDSV1 SAVING "FLOW RIGHT FACE " ON UNIT7013 AT TIME STEP    1, STRESS PERIOD  20
 UBDSV1 SAVING "FLOW FRONT FACE " ON UNIT7013 AT TIME STEP    1, STRESS PERIOD  20
 UBDSV1 SAVING "FLOW LOWER FACE " ON UNIT7013 AT TIME STEP    1, STRESS PERIOD  20
 UBDSV4 SAVING "  STREAM LEAKAGE" ON UNIT7013 AT TIME STEP    1, STRESS PERIOD  20



 
 
 
 
 
 
 
 
 UBDSV3 SAVING "FARM  NET  RECH." ON UNIT7013 AT TIME STEP    1, STRESS PERIOD  20
 UBDSV4 SAVING " GHOST-NODE HEAD" ON UNIT7013 AT TIME STEP    1, STRESS PERIOD  20
1
  FLUX ACROSS PARENT-CHILD INTERFACE AT TIME STEP  1 IN STRESS PERIOD   20
  ------------------------------------------------------------------------
 G-N FLUX        PARENT        CHILD         DIFFERENCE      % DIFFERENCE
  RATE IN:      2.2466E+03    2.2462E+03     3.9795E-01        0.0177
 RATE OUT:      3.0060E+03    3.0049E+03     1.0669E+00        0.0355
 
 SOLVING FOR HEAD 
                                                   Max.-Head-Change                        Max.-Flux-Residual
  Residual-Control   Outer-Iter.   Inner-Iter.     Column Row Layer    Max.-Head-Change    Column Row Layer    Max.-Flux-Residual            L2-New               L2-Old           Solver-Max-Delh
          0                 1           9             1    4     4      -0.1631974090E+00       6    1    1      -0.9125237211E+02      0.2591997713E+03      0.4669601778E-01     -0.1631974090E+00
          0                 2           7             1    3     4       0.1408792925E-01       6    1    1       0.9170233072E+01      0.2600164069E+02      0.2591997713E+03      0.1408792925E-01
          0                 3           5             1    4     4       0.7079761054E-03       6    1    1       0.4553414085E+00      0.1302063406E+01      0.2600164069E+02      0.7079761054E-03
          0                 4           3             1    4     4       0.3893224196E-04       1   14    1      -0.2607664256E-01      0.6720872002E-01      0.1302063406E+01      0.3893224196E-04

    ------------------------------------------------
       NWT REQUIRED            4 OUTER ITERATIONS 
       AND A TOTAL OF         24 INNER ITERATIONS.
    ------------------------------------------------
                                                   Max.-Head-Change                        Max.-Flux-Residual
  Residual-Control   Outer-Iter.   Inner-Iter.     Column Row Layer    Max.-Head-Change    Column Row Layer    Max.-Flux-Residual            L2-New               L2-Old           Solver-Max-Delh
          0                 1           9             1   12     1      -0.2441249944E+00       1   15    1      -0.1685324586E+03      0.3975914043E+03      0.6720872002E-01     -0.2441249944E+00
          0                 2           8             1   12     1       0.2085553980E-01       1   15    1       0.1663711190E+02      0.3917176175E+02      0.3975914043E+03      0.2085553980E-01
          0                 3           5             1   12     1       0.1051459934E-02       1   15    1       0.8525307188E+00      0.1983182075E+01      0.3917176175E+02      0.1051459934E-02
          0                 4           4             1   12     1       0.5648617705E-04       1   15    1       0.4368243727E-01      0.1051954255E+00      0.1983182075E+01      0.5648617705E-04

    ------------------------------------------------
       NWT REQUIRED            4 OUTER ITERATIONS 
       AND A TOTAL OF         26 INNER ITERATIONS.
    ------------------------------------------------
                                                   Max.-Head-Change                        Max.-Flux-Residual
  Residual-Control   Outer-Iter.   Inner-Iter.     Column Row Layer    Max.-Head-Change    Column Row Layer    Max.-Flux-Residual            L2-New               L2-Old           Solver-Max-Delh
          0                 1           8             1   14     1      -0.6340983797E-01       1   15    1      -0.5406163453E+02      0.1154461175E+03      0.1051954255E+00     -0.6340983797E-01
          0                 2           7             1   14     1       0.5415970570E-02       1   15    1       0.5345587569E+01      0.1148563446E+02      0.1154461175E+03      0.5415970570E-02
          0                 3           5             1   14     1       0.2741824322E-03       1   15    1       0.2720797373E+00      0.5811661150E+00      0.1148563446E+02      0.2741824322E-03
          0                 4           3             1   13     1       0.1240196753E-04       6   15    1       0.1160101313E-01      0.3185137540E-01      0.5811661150E+00      0.1240196753E-04

    ------------------------------------------------
       NWT REQUIRED            4 OUTER ITERATIONS 
       AND A TOTAL OF         23 INNER ITERATIONS.
    ------------------------------------------------
                                                   Max.-Head-Change                        Max.-Flux-Residual
  Residual-Control   Outer-Iter.   Inner-Iter.     Column Row Layer    Max.-Head-Change    Column Row Layer    Max.-Flux-Residual            L2-New               L2-Old           Solver-Max-Delh
          0                 1           7             1   11     1       0.2300399546E-01       1   10    1       0.2270132395E+02      0.5484542010E+02      0.3185137540E-01      0.2300399546E-01
          0                 2           6             1   11     1      -0.1981489858E-02       1   10    1      -0.2265127010E+01      0.5491094480E+01      0.5484542010E+02     -0.1981489858E-02
          0                 3           4             1   11     1      -0.9792118089E-04       1   11    1      -0.1134019594E+00      0.2756247906E+00      0.5491094480E+01     -0.9792118089E-04

    ------------------------------------------------
       NWT REQUIRED            3 OUTER ITERATIONS 
       AND A TOTAL OF         17 INNER ITERATIONS.
    ------------------------------------------------
                                                   Max.-Head-Change                        Max.-Flux-Residual
  Residual-Control   Outer-Iter.   Inner-Iter.     Column Row Layer    Max.-Head-Change    Column Row Layer    Max.-Flux-Residual            L2-New               L2-Old           Solver-Max-Delh
          0                 1           7             1   11     1       0.2590265036E-01       1   10    1       0.2119622505E+02      0.4025298371E+02      0.2756247906E+00      0.2590265036E-01
          0                 2           6             1   11     1      -0.2229079453E-02       1   11    1      -0.2114761612E+01      0.4015445183E+01      0.4025298371E+02     -0.2229079453E-02
          0                 3           4             1   11     1      -0.1118509268E-03       1   11    1      -0.1065739758E+00      0.1998896284E+00      0.4015445183E+01     -0.1118509268E-03
          0                 4           1             1   10     1      -0.5071974641E-05       1   10    1      -0.8839537739E-02      0.1181445934E-01      0.1998896284E+00     -0.5071974641E-05

    ------------------------------------------------
       NWT REQUIRED            4 OUTER ITERATIONS 
       AND A TOTAL OF         18 INNER ITERATIONS.
    ------------------------------------------------
                                                   Max.-Head-Change                        Max.-Flux-Residual
  Residual-Control   Outer-Iter.   Inner-Iter.     Column Row Layer    Max.-Head-Change    Column Row Layer    Max.-Flux-Residual            L2-New               L2-Old           Solver-Max-Delh
          0                 1           7             1   11     1       0.1296065309E-01       1   11    1       0.1002782291E+02      0.1857190017E+02      0.1181445934E-01      0.1296065309E-01
          0                 2           5             1   11     1      -0.1115860964E-02       1   11    1      -0.1004634749E+01      0.1852404826E+01      0.1857190017E+02     -0.1115860964E-02
          0                 3           3             1   11     1      -0.5413445911E-04       1   12    1      -0.5224997364E-01      0.9104296255E-01      0.1852404826E+01     -0.5413445911E-04

    ------------------------------------------------
       NWT REQUIRED            3 OUTER ITERATIONS 
       AND A TOTAL OF         15 INNER ITERATIONS.
    ------------------------------------------------
                                                   Max.-Head-Change                        Max.-Flux-Residual
  Residual-Control   Outer-Iter.   Inner-Iter.     Column Row Layer    Max.-Head-Change    Column Row Layer    Max.-Flux-Residual            L2-New               L2-Old           Solver-Max-Delh
          0                 1           6             1   11     1       0.3161433017E-02       1   11    1       0.2231775291E+01      0.4743524754E+01      0.9104296255E-01      0.3161433017E-02
          0                 2           5             1   11     1      -0.2747203902E-03       1   11    1      -0.2252700857E+00      0.4803364865E+00      0.4743524754E+01     -0.2747203902E-03
          0                 3           3             1   11     1      -0.1202230265E-04       1   11    1      -0.9732304490E-02      0.2792596001E-01      0.4803364865E+00     -0.1202230265E-04

    ------------------------------------------------
       NWT REQUIRED            3 OUTER ITERATIONS 
       AND A TOTAL OF         14 INNER ITERATIONS.
    ------------------------------------------------
                                                   Max.-Head-Change                        Max.-Flux-Residual
  Residual-Control   Outer-Iter.   Inner-Iter.     Column Row Layer    Max.-Head-Change    Column Row Layer    Max.-Flux-Residual            L2-New               L2-Old           Solver-Max-Delh
          0                 1           5             1   11     2      -0.1314172313E-02       1   10    1      -0.7641833338E+00      0.2808225777E+01      0.2792596001E-01     -0.1314172313E-02
          0                 2           4             1   11     2       0.1145468657E-03       1   11    1       0.7829618629E-01      0.2803433248E+00      0.2808225777E+01      0.1145468657E-03
          0                 3           2             6    9     1      -0.8091989492E-05       6   15    1      -0.9256122023E-02      0.2314451762E-01      0.2803433248E+00     -0.8091989492E-05

    ------------------------------------------------
       NWT REQUIRED            3 OUTER ITERATIONS 
       AND A TOTAL OF         11 INNER ITERATIONS.
    ------------------------------------------------
                                                   Max.-Head-Change                        Max.-Flux-Residual
  Residual-Control   Outer-Iter.   Inner-Iter.     Column Row Layer    Max.-Head-Change    Column Row Layer    Max.-Flux-Residual            L2-New               L2-Old           Solver-Max-Delh
          0                 1           5             1   11     2      -0.1285624421E-02       1   10    1      -0.1055307822E+01      0.2486342664E+01      0.2314451762E-01     -0.1285624421E-02
          0                 2           4             1   11     2       0.1110498369E-03       1   10    1       0.1044846794E+00      0.2442639734E+00      0.2486342664E+01      0.1110498369E-03
          0                 3           2             1   11     1       0.8453798701E-05       1   11    1       0.9375856840E-02      0.2405075188E-01      0.2442639734E+00      0.8453798701E-05

    ------------------------------------------------
       NWT REQUIRED            3 OUTER ITERATIONS 
       AND A TOTAL OF         11 INNER ITERATIONS.
    ------------------------------------------------
                                                   Max.-Head-Change                        Max.-Flux-Residual
  Residual-Control   Outer-Iter.   Inner-Iter.     Column Row Layer    Max.-Head-Change    Column Row Layer    Max.-Flux-Residual            L2-New               L2-Old           Solver-Max-Delh
          0                 1           5             1   11     1      -0.6187350364E-03       1   10    1      -0.5582614368E+00      0.1280363966E+01      0.2405075188E-01     -0.6187350364E-03
          0                 2           3             1   11     1       0.5308242075E-04       1   10    1       0.5965199438E-01      0.1296578382E+00      0.1280363966E+01      0.5308242075E-04

    ------------------------------------------------
       NWT REQUIRED            2 OUTER ITERATIONS 
       AND A TOTAL OF          8 INNER ITERATIONS.
    ------------------------------------------------
                                                   Max.-Head-Change                        Max.-Flux-Residual
  Residual-Control   Outer-Iter.   Inner-Iter.     Column Row Layer    Max.-Head-Change    Column Row Layer    Max.-Flux-Residual            L2-New               L2-Old           Solver-Max-Delh
          0                 1           4             1   11     3       0.2018072143E-03       6   15    1       0.1541725823E+00      0.4246182377E+00      0.1296578382E+00      0.2018072143E-03
          0                 2           3             1   12     3      -0.1683901966E-04       1   11    1       0.1851586206E-01      0.4759871457E-01      0.4246182377E+00     -0.1683901966E-04

    ------------------------------------------------
       NWT REQUIRED            2 OUTER ITERATIONS 
       AND A TOTAL OF          7 INNER ITERATIONS.
    ------------------------------------------------

 OUTPUT CONTROL FOR STRESS PERIOD     20   TIME STEP     2
    SAVE BUDGET
 UBDSV1 SAVING "         STORAGE" ON UNIT7013 AT TIME STEP    2, STRESS PERIOD  20
 UBDSV2 SAVING "   CONSTANT HEAD" ON UNIT7013 AT TIME STEP    2, STRESS PERIOD  20
 UBDSV1 SAVING "FLOW RIGHT FACE " ON UNIT7013 AT TIME STEP    2, STRESS PERIOD  20
 UBDSV1 SAVING "FLOW FRONT FACE " ON UNIT7013 AT TIME STEP    2, STRESS PERIOD  20
 UBDSV1 SAVING "FLOW LOWER FACE " ON UNIT7013 AT TIME STEP    2, STRESS PERIOD  20
 UBDSV4 SAVING "  STREAM LEAKAGE" ON UNIT7013 AT TIME STEP    2, STRESS PERIOD  20



 
 
 
 
 
 
 
 
 UBDSV3 SAVING "FARM  NET  RECH." ON UNIT7013 AT TIME STEP    2, STRESS PERIOD  20
 UBDSV4 SAVING " GHOST-NODE HEAD" ON UNIT7013 AT TIME STEP    2, STRESS PERIOD  20
1
  VOLUMETRIC BUDGET FOR ENTIRE MODEL AT END OF TIME STEP    2 IN STRESS PERIOD     20
  ------------------------------------------------------------------------------

     CUMULATIVE VOLUMES      L**3       RATES FOR THIS TIME STEP      L**3/T
     ------------------                 ------------------------

           IN:                                      IN:
           ---                                      ---
             STORAGE =      194003.0938               STORAGE =         727.1397
       CONSTANT HEAD =           0.0000         CONSTANT HEAD =           0.0000
      STREAM LEAKAGE =      511045.1875        STREAM LEAKAGE =           0.0000
          FARM WELLS =           0.0000            FARM WELLS =           0.0000
    FARM  NET  RECH. =      285035.4688      FARM  NET  RECH. =           0.0000
     GHOST-NODE HEAD =     4722945.5000       GHOST-NODE HEAD =        2274.5029

            TOTAL IN =     5713029.0000              TOTAL IN =        3001.6426

          OUT:                                     OUT:
          ----                                     ----
             STORAGE =     4087178.2500               STORAGE =           0.0000
       CONSTANT HEAD =           0.0000         CONSTANT HEAD =           0.0000
      STREAM LEAKAGE =           0.0000        STREAM LEAKAGE =           0.0000
          FARM WELLS =       45434.2578            FARM WELLS =           0.0000
    FARM  NET  RECH. =           0.0000      FARM  NET  RECH. =           0.0000
     GHOST-NODE HEAD =     1580414.5000       GHOST-NODE HEAD =        3001.6499

           TOTAL OUT =     5713027.0000             TOTAL OUT =        3001.6499

            IN - OUT =           2.0000              IN - OUT =      -7.3242E-03

 PERCENT DISCREPANCY =           0.00     PERCENT DISCREPANCY =          -0.00






          TIME SUMMARY AT END OF TIME STEP     2 IN STRESS PERIOD     20
                    SECONDS     MINUTES      HOURS       DAYS        YEARS
                    -----------------------------------------------------------
   TIME STEP LENGTH 1.31414E+06  21902.      365.04      15.210     4.16427E-02
 STRESS PERIOD TIME 2.62829E+06  43805.      730.08      30.420     8.32854E-02
         TOTAL TIME 5.25658E+07 8.76096E+05  14602.      608.40      1.6657    
1
1
  FLUX ACROSS PARENT-CHILD INTERFACE AT TIME STEP  2 IN STRESS PERIOD   20
  ------------------------------------------------------------------------
 G-N FLUX        PARENT        CHILD         DIFFERENCE      % DIFFERENCE
  RATE IN:      2.2750E+03    2.2745E+03     4.5728E-01        0.0201
 RATE OUT:      3.0027E+03    3.0016E+03     1.0317E+00        0.0344
1
                            STRESS PERIOD NO.     21, LENGTH =   30.42000    
                            -----------------------------------------------

                              NUMBER OF TIME STEPS =     2

                               MULTIPLIER FOR DELT =     1.000

                            INITIAL TIME STEP SIZE =   15.21000    

 REUSING STREAM SEGMENT DATA FROM LAST STRESS PERIOD

 Parameter:  WELLS1
 WELL NO. LAYER    ROW    COL  F-WELL ID    FARM ID         QMAX         QMAXRESET       LGRGRID         
 --------------------------------------------------------------------------------------------------------
       1      1      2      2          5          2      2.0000E+03              0              0
       2      1      5      5          6          2      1.0000E+03              0              0

 NUMBER OF ACTIVE FARM WELLS:        2

 FARM-ID  NUMBER OF WELLS PER FARM  TOTAL MAX.CAPACITY PER FARM
       1                         0                       0.0000
       2                         2                    3000.0000
       3                         0                       0.0000
       4                         0                       0.0000
       5                         0                       0.0000
       6                         0                       0.0000
       7                         0                       0.0000
       8                         0                       0.0000

Transpiratory and Evaporative Fractions of Crop Consumptive Use
    % Transpiration % Evap. for Precip. % Evap. for Irrig.
    3          0.661          0.339          0.339
    5          0.927          0.073          0.000

FRACTIONS OF IN-EFFICIENT LOSSES TO SW-RUNOFF FROM 
     PRECIPITATION:  IRRIGATION:
    3          0.600          0.500
    5          0.500          0.000
 
 SOLVING FOR HEAD 
                                                   Max.-Head-Change                        Max.-Flux-Residual
  Residual-Control   Outer-Iter.   Inner-Iter.     Column Row Layer    Max.-Head-Change    Column Row Layer    Max.-Flux-Residual            L2-New               L2-Old           Solver-Max-Delh
          0                 1           9             2   14     1       0.8321057740E+00       1   14    1       0.6591626003E+03      0.1169882908E+04      0.4759871457E-01      0.8321057740E+00
          0                 2           7             2   14     1      -0.7396938047E-01       1   14    1      -0.6887936660E+02      0.1222438343E+03      0.1169882908E+04     -0.7396938047E-01
          0                 3           6             2   14     1      -0.3736472804E-02       1   14    1      -0.3490595332E+01      0.6178022239E+01      0.1222438343E+03     -0.3736472804E-02
          0                 4           4             2   14     1      -0.1875040231E-03       1   14    1      -0.1794594484E+00      0.3115909200E+00      0.6178022239E+01     -0.1875040231E-03
          0                 5           2             2   14     1      -0.8466439098E-05       2   14    1      -0.7180791115E-02      0.1606867899E-01      0.3115909200E+00     -0.8466439098E-05

    ------------------------------------------------
       NWT REQUIRED            5 OUTER ITERATIONS 
       AND A TOTAL OF         28 INNER ITERATIONS.
    ------------------------------------------------
                                                   Max.-Head-Change                        Max.-Flux-Residual
  Residual-Control   Outer-Iter.   Inner-Iter.     Column Row Layer    Max.-Head-Change    Column Row Layer    Max.-Flux-Residual            L2-New               L2-Old           Solver-Max-Delh
          0                 1           9             2   14     1      -0.4706885359E+00       1   14    1      -0.4126933753E+03      0.6836781489E+03      0.1606867899E-01     -0.4706885359E+00
          0                 2           7             2   14     1       0.3964495373E-01       1   14    1       0.3961236362E+02      0.6558926879E+02      0.6836781489E+03      0.3964495373E-01
          0                 3           6             2   14     1       0.1991841716E-02       1   14    1       0.2002442588E+01      0.3287084432E+01      0.6558926879E+02      0.1991841716E-02
          0                 4           4             2   14     1       0.9924832452E-04       1   14    1       0.9984233661E-01      0.1641568207E+00      0.3287084432E+01      0.9924832452E-04

    ------------------------------------------------
       NWT REQUIRED            4 OUTER ITERATIONS 
       AND A TOTAL OF         26 INNER ITERATIONS.
    ------------------------------------------------
                                                   Max.-Head-Change                        Max.-Flux-Residual
  Residual-Control   Outer-Iter.   Inner-Iter.     Column Row Layer    Max.-Head-Change    Column Row Layer    Max.-Flux-Residual            L2-New               L2-Old           Solver-Max-Delh
          0                 1           8             1   12     1      -0.4722271747E-01       1   14    1      -0.2928972325E+02      0.8520286662E+02      0.1641568207E+00     -0.4722271747E-01
          0                 2           6             1   12     1       0.4057547186E-02       1   14    1       0.2901024902E+01      0.8487514198E+01      0.8520286662E+02      0.4057547186E-02
          0                 3           4             1   12     1       0.2047506318E-03       1   13    1       0.1516448386E+00      0.4284744218E+00      0.8487514198E+01      0.2047506318E-03
          0                 4           3             1   11     1       0.9939106837E-05       1   10    1       0.8932440076E-02      0.2416248811E-01      0.4284744218E+00      0.9939106837E-05

    ------------------------------------------------
       NWT REQUIRED            4 OUTER ITERATIONS 
       AND A TOTAL OF         21 INNER ITERATIONS.
    ------------------------------------------------
                                                   Max.-Head-Change                        Max.-Flux-Residual
  Residual-Control   Outer-Iter.   Inner-Iter.     Column Row Layer    Max.-Head-Change    Column Row Layer    Max.-Flux-Residual            L2-New               L2-Old           Solver-Max-Delh
          0                 1           7             6   13     1      -0.1225594752E-01       1   15    1      -0.1028335669E+02      0.2909487327E+02      0.2416248811E-01     -0.1225594752E-01
          0                 2           6             6   13     1       0.1064171012E-02       1   15    1       0.1024233879E+01      0.2917059931E+01      0.2909487327E+02      0.1064171012E-02
          0                 3           4             6   13     1       0.5756432619E-04       1   15    1       0.5784965947E-01      0.1524695443E+00      0.2917059931E+01      0.5756432619E-04

    ------------------------------------------------
       NWT REQUIRED            3 OUTER ITERATIONS 
       AND A TOTAL OF         17 INNER ITERATIONS.
    ------------------------------------------------
                                                   Max.-Head-Change                        Max.-Flux-Residual
  Residual-Control   Outer-Iter.   Inner-Iter.     Column Row Layer    Max.-Head-Change    Column Row Layer    Max.-Flux-Residual            L2-New               L2-Old           Solver-Max-Delh
          0                 1           6             6   15     1      -0.7913217252E-02       6   15    1      -0.7235924765E+01      0.1907060407E+02      0.1524695443E+00     -0.7913217252E-02
          0                 2           5             6   15     1       0.6846563204E-03       6   15    1       0.7259277313E+00      0.1909335586E+01      0.1907060407E+02      0.6846563204E-03
          0                 3           3             6   15     1       0.3531875370E-04       1   10    1      -0.3899235558E-01      0.9653097205E-01      0.1909335586E+01      0.3531875370E-04

    ------------------------------------------------
       NWT REQUIRED            3 OUTER ITERATIONS 
       AND A TOTAL OF         14 INNER ITERATIONS.
    ------------------------------------------------
                                                   Max.-Head-Change                        Max.-Flux-Residual
  Residual-Control   Outer-Iter.   Inner-Iter.     Column Row Layer    Max.-Head-Change    Column Row Layer    Max.-Flux-Residual            L2-New               L2-Old           Solver-Max-Delh
          0                 1           6             1   11     1       0.5729381414E-02       1   11    1       0.5098106433E+01      0.1196173922E+02      0.9653097205E-01      0.5729381414E-02
          0                 2           5             1   11     1      -0.4923152158E-03       1   11    1      -0.5087470319E+00      0.1196923055E+01      0.1196173922E+02     -0.4923152158E-03
          0                 3           3             1   11     1      -0.2891469552E-04       1   11    1      -0.3096740763E-01      0.6239495187E-01      0.1196923055E+01     -0.2891469552E-04

    ------------------------------------------------
       NWT REQUIRED            3 OUTER ITERATIONS 
       AND A TOTAL OF         14 INNER ITERATIONS.
    ------------------------------------------------
                                                   Max.-Head-Change                        Max.-Flux-Residual
  Residual-Control   Outer-Iter.   Inner-Iter.     Column Row Layer    Max.-Head-Change    Column Row Layer    Max.-Flux-Residual            L2-New               L2-Old           Solver-Max-Delh
          0                 1           6             6   15     1      -0.2533279156E-02       6   15    1      -0.2405004496E+01      0.5366846109E+01      0.6239495187E-01     -0.2533279156E-02
          0                 2           4             6   15     1       0.2162959925E-03       6   15    1       0.2373280493E+00      0.5336640195E+00      0.5366846109E+01      0.2162959925E-03
          0                 3           2             6   15     1       0.1271799641E-04       1   12    1      -0.1369937172E-01      0.3549822968E-01      0.5336640195E+00      0.1271799641E-04

    ------------------------------------------------
       NWT REQUIRED            3 OUTER ITERATIONS 
       AND A TOTAL OF         12 INNER ITERATIONS.
    ------------------------------------------------
                                                   Max.-Head-Change                        Max.-Flux-Residual
  Residual-Control   Outer-Iter.   Inner-Iter.     Column Row Layer    Max.-Head-Change    Column Row Layer    Max.-Flux-Residual            L2-New               L2-Old           Solver-Max-Delh
          0                 1           6             5   15     1      -0.1224976405E-02       6   15    1      -0.1098794262E+01      0.2256112831E+01      0.3549822968E-01     -0.1224976405E-02
          0                 2           4             5   15     1       0.1078339331E-03       6   15    1       0.1140627771E+00      0.2283526700E+00      0.2256112831E+01      0.1078339331E-03
          0                 3           2             1   15     1       0.8685008780E-05       1   15    1       0.1414033066E-01      0.2164757452E-01      0.2283526700E+00      0.8685008780E-05

    ------------------------------------------------
       NWT REQUIRED            3 OUTER ITERATIONS 
       AND A TOTAL OF         12 INNER ITERATIONS.
    ------------------------------------------------
                                                   Max.-Head-Change                        Max.-Flux-Residual
  Residual-Control   Outer-Iter.   Inner-Iter.     Column Row Layer    Max.-Head-Change    Column Row Layer    Max.-Flux-Residual            L2-New               L2-Old           Solver-Max-Delh
          0                 1           5             1   12     2      -0.6942246027E-03       1   15    1      -0.4930906220E+00      0.1383342186E+01      0.2164757452E-01     -0.6942246027E-03
          0                 2           3             1   11     2       0.6089540078E-04       1   11    1       0.4661505821E-01      0.1386316793E+00      0.1383342186E+01      0.6089540078E-04

    ------------------------------------------------
       NWT REQUIRED            2 OUTER ITERATIONS 
       AND A TOTAL OF          8 INNER ITERATIONS.
    ------------------------------------------------
                                                   Max.-Head-Change                        Max.-Flux-Residual
  Residual-Control   Outer-Iter.   Inner-Iter.     Column Row Layer    Max.-Head-Change    Column Row Layer    Max.-Flux-Residual            L2-New               L2-Old           Solver-Max-Delh
          0                 1           4             1   11     2      -0.4505902058E-03       1   11    1      -0.3174182614E+00      0.7837322528E+00      0.1386316793E+00     -0.4505902058E-03
          0                 2           3             1   11     1       0.3964539263E-04       1   11    1       0.3835373383E-01      0.8497230957E-01      0.7837322528E+00      0.3964539263E-04

    ------------------------------------------------
       NWT REQUIRED            2 OUTER ITERATIONS 
       AND A TOTAL OF          7 INNER ITERATIONS.
    ------------------------------------------------
                                                   Max.-Head-Change                        Max.-Flux-Residual
  Residual-Control   Outer-Iter.   Inner-Iter.     Column Row Layer    Max.-Head-Change    Column Row Layer    Max.-Flux-Residual            L2-New               L2-Old           Solver-Max-Delh
          0                 1           3             1   11     1      -0.1881003904E-03       1   10    1      -0.1466533354E+00      0.3208277382E+00      0.8497230957E-01     -0.1881003904E-03
          0                 2           2             1   10     1       0.1672074829E-04       1   10    1       0.2144910733E-01      0.3858287159E-01      0.3208277382E+00      0.1672074829E-04

    ------------------------------------------------
       NWT REQUIRED            2 OUTER ITERATIONS 
       AND A TOTAL OF          5 INNER ITERATIONS.
    ------------------------------------------------

 OUTPUT CONTROL FOR STRESS PERIOD     21   TIME STEP     1
    SAVE BUDGET
 UBDSV1 SAVING "         STORAGE" ON UNIT7013 AT TIME STEP    1, STRESS PERIOD  21
 UBDSV2 SAVING "   CONSTANT HEAD" ON UNIT7013 AT TIME STEP    1, STRESS PERIOD  21
 UBDSV1 SAVING "FLOW RIGHT FACE " ON UNIT7013 AT TIME STEP    1, STRESS PERIOD  21
 UBDSV1 SAVING "FLOW FRONT FACE " ON UNIT7013 AT TIME STEP    1, STRESS PERIOD  21
 UBDSV1 SAVING "FLOW LOWER FACE " ON UNIT7013 AT TIME STEP    1, STRESS PERIOD  21
 UBDSV4 SAVING "  STREAM LEAKAGE" ON UNIT7013 AT TIME STEP    1, STRESS PERIOD  21



 
 
 
 
 
 
 
 
 UBDSV3 SAVING "FARM  NET  RECH." ON UNIT7013 AT TIME STEP    1, STRESS PERIOD  21
 UBDSV4 SAVING " GHOST-NODE HEAD" ON UNIT7013 AT TIME STEP    1, STRESS PERIOD  21
1
  FLUX ACROSS PARENT-CHILD INTERFACE AT TIME STEP  1 IN STRESS PERIOD   21
  ------------------------------------------------------------------------
 G-N FLUX        PARENT        CHILD         DIFFERENCE      % DIFFERENCE
  RATE IN:      1.8763E+03    1.8756E+03     6.8542E-01        0.0365
 RATE OUT:      2.8902E+03    2.8898E+03     4.6240E-01        0.0160
 
 SOLVING FOR HEAD 
                                                   Max.-Head-Change                        Max.-Flux-Residual
  Residual-Control   Outer-Iter.   Inner-Iter.     Column Row Layer    Max.-Head-Change    Column Row Layer    Max.-Flux-Residual            L2-New               L2-Old           Solver-Max-Delh
          0                 1           9             2   14     1       0.5717063262E+00       1   14    1       0.4694875312E+03      0.7629598228E+03      0.3858287159E-01      0.5717063262E+00
          0                 2           7             2   14     1      -0.5031481858E-01       1   14    1      -0.4851736811E+02      0.7881010878E+02      0.7629598228E+03     -0.5031481858E-01
          0                 3           5             2   14     1      -0.2538058380E-02       1   14    1      -0.2456136997E+01      0.3976821140E+01      0.7881010878E+02     -0.2538058380E-02
          0                 4           3             2   14     1      -0.1279818962E-03       1   14    1      -0.1251032263E+00      0.2003782899E+00      0.3976821140E+01     -0.1279818962E-03
          0                 5           2             3   14     1      -0.4561462711E-05       2   14    1      -0.4744717677E-02      0.1095193713E-01      0.2003782899E+00     -0.4561462711E-05

    ------------------------------------------------
       NWT REQUIRED            5 OUTER ITERATIONS 
       AND A TOTAL OF         26 INNER ITERATIONS.
    ------------------------------------------------
                                                   Max.-Head-Change                        Max.-Flux-Residual
  Residual-Control   Outer-Iter.   Inner-Iter.     Column Row Layer    Max.-Head-Change    Column Row Layer    Max.-Flux-Residual            L2-New               L2-Old           Solver-Max-Delh
          0                 1           9             2   14     1      -0.4944818527E+00       1   14    1      -0.4269929796E+03      0.6866445127E+03      0.1095193713E-01     -0.4944818527E+00
          0                 2           8             2   14     1       0.4164299455E-01       1   14    1       0.4095390008E+02      0.6596804736E+02      0.6866445127E+03      0.4164299455E-01
          0                 3           6             2   14     1       0.2091748929E-02       1   14    1       0.2057074278E+01      0.3300855135E+01      0.6596804736E+02      0.2091748929E-02
          0                 4           4             2   14     1       0.1058248594E-03       1   14    1       0.1076587881E+00      0.1708023615E+00      0.3300855135E+01      0.1058248594E-03
          0                 5           2             1   13     1       0.6135218652E-05       6   12    1       0.7054217276E-02      0.1667564422E-01      0.1708023615E+00      0.6135218652E-05

    ------------------------------------------------
       NWT REQUIRED            5 OUTER ITERATIONS 
       AND A TOTAL OF         29 INNER ITERATIONS.
    ------------------------------------------------
                                                   Max.-Head-Change                        Max.-Flux-Residual
  Residual-Control   Outer-Iter.   Inner-Iter.     Column Row Layer    Max.-Head-Change    Column Row Layer    Max.-Flux-Residual            L2-New               L2-Old           Solver-Max-Delh
          0                 1           8             1   13     1      -0.5558195105E-01       1   15    1      -0.4265868739E+02      0.9641851888E+02      0.1667564422E-01     -0.5558195105E-01
          0                 2           6             1   13     1       0.4753875434E-02       1   15    1       0.4230270503E+01      0.9591709055E+01      0.9641851888E+02      0.4753875434E-02
          0                 3           5             1   13     1       0.2446408149E-03       1   15    1       0.2105416129E+00      0.4834826773E+00      0.9591709055E+01      0.2446408149E-03
          0                 4           3             1   14     1       0.1245177182E-04       1   15    1       0.1295420842E-01      0.3330411329E-01      0.4834826773E+00      0.1245177182E-04

    ------------------------------------------------
       NWT REQUIRED            4 OUTER ITERATIONS 
       AND A TOTAL OF         22 INNER ITERATIONS.
    ------------------------------------------------
                                                   Max.-Head-Change                        Max.-Flux-Residual
  Residual-Control   Outer-Iter.   Inner-Iter.     Column Row Layer    Max.-Head-Change    Column Row Layer    Max.-Flux-Residual            L2-New               L2-Old           Solver-Max-Delh
          0                 1           7             1   15     1      -0.2101603100E-01       1   15    1      -0.1945563752E+02      0.4060517294E+02      0.3330411329E-01     -0.2101603100E-01
          0                 2           6             1   15     1       0.1801320534E-02       1   15    1       0.1928767179E+01      0.4049914662E+01      0.4060517294E+02      0.1801320534E-02
          0                 3           4             1   15     1       0.9343969461E-04       1   15    1       0.1003814818E+00      0.2073886593E+00      0.4049914662E+01      0.9343969461E-04

    ------------------------------------------------
       NWT REQUIRED            3 OUTER ITERATIONS 
       AND A TOTAL OF         17 INNER ITERATIONS.
    ------------------------------------------------
                                                   Max.-Head-Change                        Max.-Flux-Residual
  Residual-Control   Outer-Iter.   Inner-Iter.     Column Row Layer    Max.-Head-Change    Column Row Layer    Max.-Flux-Residual            L2-New               L2-Old           Solver-Max-Delh
          0                 1           7             6   15     1      -0.1100034819E-01       6   15    1      -0.9860823617E+01      0.2533331551E+02      0.2073886593E+00     -0.1100034819E-01
          0                 2           5             6   15     1       0.9507807258E-03       6   15    1       0.9854187719E+00      0.2536798185E+01      0.2533331551E+02      0.9507807258E-03
          0                 3           3             6   15     1       0.4291253587E-04       1   10    1      -0.4527030815E-01      0.1198391675E+00      0.2536798185E+01      0.4291253587E-04

    ------------------------------------------------
       NWT REQUIRED            3 OUTER ITERATIONS 
       AND A TOTAL OF         15 INNER ITERATIONS.
    ------------------------------------------------
                                                   Max.-Head-Change                        Max.-Flux-Residual
  Residual-Control   Outer-Iter.   Inner-Iter.     Column Row Layer    Max.-Head-Change    Column Row Layer    Max.-Flux-Residual            L2-New               L2-Old           Solver-Max-Delh
          0                 1           6             6   15     1      -0.5705380206E-02       1   10    1       0.5500504784E+01      0.1418963408E+02      0.1198391675E+00     -0.5705380206E-02
          0                 2           5             6   15     1       0.4940544856E-03       1   10    1      -0.5521213461E+00      0.1420312180E+01      0.1418963408E+02      0.4940544856E-03
          0                 3           2             5   15     1       0.2429389951E-04       1   12    1      -0.2750102617E-01      0.6801489075E-01      0.1420312180E+01      0.2429389951E-04

    ------------------------------------------------
       NWT REQUIRED            3 OUTER ITERATIONS 
       AND A TOTAL OF         13 INNER ITERATIONS.
    ------------------------------------------------
                                                   Max.-Head-Change                        Max.-Flux-Residual
  Residual-Control   Outer-Iter.   Inner-Iter.     Column Row Layer    Max.-Head-Change    Column Row Layer    Max.-Flux-Residual            L2-New               L2-Old           Solver-Max-Delh
          0                 1           6             3   15     1      -0.2828802046E-02       6   15    1      -0.2389535346E+01      0.6112855815E+01      0.6801489075E-01     -0.2828802046E-02
          0                 2           4             3   15     1       0.2456832430E-03       6   15    1       0.2427528299E+00      0.6161475576E+00      0.6112855815E+01      0.2456832430E-03
          0                 3           2             2   15     1       0.1190248790E-04       1   15    1       0.1228623383E-01      0.3503863250E-01      0.6161475576E+00      0.1190248790E-04

    ------------------------------------------------
       NWT REQUIRED            3 OUTER ITERATIONS 
       AND A TOTAL OF         12 INNER ITERATIONS.
    ------------------------------------------------
                                                   Max.-Head-Change                        Max.-Flux-Residual
  Residual-Control   Outer-Iter.   Inner-Iter.     Column Row Layer    Max.-Head-Change    Column Row Layer    Max.-Flux-Residual            L2-New               L2-Old           Solver-Max-Delh
          0                 1           5             1   15     1      -0.1434833878E-02       1   15    1      -0.1324184509E+01      0.2560713062E+01      0.3503863250E-01     -0.1434833878E-02
          0                 2           4             1   15     1       0.1208275688E-03       1   15    1       0.1280551319E+00      0.2529723842E+00      0.2560713062E+01      0.1208275688E-03
          0                 3           2             2   15     1       0.7432425168E-05       6    1    1      -0.8176105388E-02      0.2035463079E-01      0.2529723842E+00      0.7432425168E-05

    ------------------------------------------------
       NWT REQUIRED            3 OUTER ITERATIONS 
       AND A TOTAL OF         11 INNER ITERATIONS.
    ------------------------------------------------
                                                   Max.-Head-Change                        Max.-Flux-Residual
  Residual-Control   Outer-Iter.   Inner-Iter.     Column Row Layer    Max.-Head-Change    Column Row Layer    Max.-Flux-Residual            L2-New               L2-Old           Solver-Max-Delh
          0                 1           4             1   12     2      -0.8270906625E-03       1   15    1      -0.6602888158E+00      0.1483262646E+01      0.2035463079E-01     -0.8270906625E-03
          0                 2           3             1   12     2       0.7049171812E-04       1   15    1       0.7224192668E-01      0.1513617777E+00      0.1483262646E+01      0.7049171812E-04

    ------------------------------------------------
       NWT REQUIRED            2 OUTER ITERATIONS 
       AND A TOTAL OF          7 INNER ITERATIONS.
    ------------------------------------------------
                                                   Max.-Head-Change                        Max.-Flux-Residual
  Residual-Control   Outer-Iter.   Inner-Iter.     Column Row Layer    Max.-Head-Change    Column Row Layer    Max.-Flux-Residual            L2-New               L2-Old           Solver-Max-Delh
          0                 1           4             1   11     1      -0.4707873814E-03       1   11    1      -0.3502264534E+00      0.7865814198E+00      0.1513617777E+00     -0.4707873814E-03
          0                 2           3             1   11     1       0.4144102770E-04       1   10    1       0.4056874721E-01      0.8401813669E-01      0.7865814198E+00      0.4144102770E-04

    ------------------------------------------------
       NWT REQUIRED            2 OUTER ITERATIONS 
       AND A TOTAL OF          7 INNER ITERATIONS.
    ------------------------------------------------
                                                   Max.-Head-Change                        Max.-Flux-Residual
  Residual-Control   Outer-Iter.   Inner-Iter.     Column Row Layer    Max.-Head-Change    Column Row Layer    Max.-Flux-Residual            L2-New               L2-Old           Solver-Max-Delh
          0                 1           3             1   11     1      -0.1632949623E-03       1   10    1      -0.1317553861E+00      0.2714932254E+00      0.8401813669E-01     -0.1632949623E-03
          0                 2           2             1   12     1       0.1274501431E-04       1   12    1       0.1747671922E-01      0.3073873182E-01      0.2714932254E+00      0.1274501431E-04

    ------------------------------------------------
       NWT REQUIRED            2 OUTER ITERATIONS 
       AND A TOTAL OF          5 INNER ITERATIONS.
    ------------------------------------------------

 OUTPUT CONTROL FOR STRESS PERIOD     21   TIME STEP     2
    PRINT BUDGET
    SAVE HEAD FOR ALL LAYERS
    SAVE BUDGET
 UBDSV1 SAVING "         STORAGE" ON UNIT7013 AT TIME STEP    2, STRESS PERIOD  21
 UBDSV2 SAVING "   CONSTANT HEAD" ON UNIT7013 AT TIME STEP    2, STRESS PERIOD  21
 UBDSV1 SAVING "FLOW RIGHT FACE " ON UNIT7013 AT TIME STEP    2, STRESS PERIOD  21
 UBDSV1 SAVING "FLOW FRONT FACE " ON UNIT7013 AT TIME STEP    2, STRESS PERIOD  21
 UBDSV1 SAVING "FLOW LOWER FACE " ON UNIT7013 AT TIME STEP    2, STRESS PERIOD  21
 UBDSV4 SAVING "  STREAM LEAKAGE" ON UNIT7013 AT TIME STEP    2, STRESS PERIOD  21



 
 
 
 
 
 
 
 
 UBDSV3 SAVING "FARM  NET  RECH." ON UNIT7013 AT TIME STEP    2, STRESS PERIOD  21
 UBDSV4 SAVING " GHOST-NODE HEAD" ON UNIT7013 AT TIME STEP    2, STRESS PERIOD  21

 HEAD WILL BE SAVED ON UNIT 2213 AT END OF TIME STEP     2, STRESS PERIOD     21
1
  VOLUMETRIC BUDGET FOR ENTIRE MODEL AT END OF TIME STEP    2 IN STRESS PERIOD     21
  ------------------------------------------------------------------------------

     CUMULATIVE VOLUMES      L**3       RATES FOR THIS TIME STEP      L**3/T
     ------------------                 ------------------------

           IN:                                      IN:
           ---                                      ---
             STORAGE =      202821.6250               STORAGE =         293.2678
       CONSTANT HEAD =           0.0000         CONSTANT HEAD =           0.0000
      STREAM LEAKAGE =      530277.8125        STREAM LEAKAGE =         632.2361
          FARM WELLS =           0.0000            FARM WELLS =           0.0000
    FARM  NET  RECH. =      304268.0938      FARM  NET  RECH. =         632.2361
     GHOST-NODE HEAD =     4778825.0000       GHOST-NODE HEAD =        1798.2377

            TOTAL IN =     5816192.5000              TOTAL IN =        3355.9775

          OUT:                                     OUT:
          ----                                     ----
             STORAGE =     4089772.2500               STORAGE =           9.6938
       CONSTANT HEAD =           0.0000         CONSTANT HEAD =           0.0000
      STREAM LEAKAGE =           0.0000        STREAM LEAKAGE =           0.0000
          FARM WELLS =       56872.3047            FARM WELLS =         376.0042
    FARM  NET  RECH. =           0.0000      FARM  NET  RECH. =           0.0000
     GHOST-NODE HEAD =     1669545.6250       GHOST-NODE HEAD =        2970.2693

           TOTAL OUT =     5816190.0000             TOTAL OUT =        3355.9673

            IN - OUT =           2.5000              IN - OUT =       1.0254E-02

 PERCENT DISCREPANCY =           0.00     PERCENT DISCREPANCY =           0.00






          TIME SUMMARY AT END OF TIME STEP     2 IN STRESS PERIOD     21
                    SECONDS     MINUTES      HOURS       DAYS        YEARS
                    -----------------------------------------------------------
   TIME STEP LENGTH 1.31414E+06  21902.      365.04      15.210     4.16427E-02
 STRESS PERIOD TIME 2.62829E+06  43805.      730.08      30.420     8.32854E-02
         TOTAL TIME 5.51941E+07 9.19901E+05  15332.      638.82      1.7490    
1
1
  FLUX ACROSS PARENT-CHILD INTERFACE AT TIME STEP  2 IN STRESS PERIOD   21
  ------------------------------------------------------------------------
 G-N FLUX        PARENT        CHILD         DIFFERENCE      % DIFFERENCE
  RATE IN:      1.7991E+03    1.7982E+03     8.2520E-01        0.0459
 RATE OUT:      2.9709E+03    2.9703E+03     5.9131E-01        0.0199
1
                            STRESS PERIOD NO.     22, LENGTH =   30.42000    
                            -----------------------------------------------

                              NUMBER OF TIME STEPS =     2

                               MULTIPLIER FOR DELT =     1.000

                            INITIAL TIME STEP SIZE =   15.21000    

 REUSING STREAM SEGMENT DATA FROM LAST STRESS PERIOD

 Parameter:  WELLS1
 WELL NO. LAYER    ROW    COL  F-WELL ID    FARM ID         QMAX         QMAXRESET       LGRGRID         
 --------------------------------------------------------------------------------------------------------
       1      1      2      2          5          2      2.0000E+03              0              0
       2      1      5      5          6          2      1.0000E+03              0              0

 NUMBER OF ACTIVE FARM WELLS:        2

 FARM-ID  NUMBER OF WELLS PER FARM  TOTAL MAX.CAPACITY PER FARM
       1                         0                       0.0000
       2                         2                    3000.0000
       3                         0                       0.0000
       4                         0                       0.0000
       5                         0                       0.0000
       6                         0                       0.0000
       7                         0                       0.0000
       8                         0                       0.0000

Transpiratory and Evaporative Fractions of Crop Consumptive Use
    % Transpiration % Evap. for Precip. % Evap. for Irrig.
    3          0.894          0.106          0.106
    5          0.927          0.073          0.000

FRACTIONS OF IN-EFFICIENT LOSSES TO SW-RUNOFF FROM 
     PRECIPITATION:  IRRIGATION:
    3          0.600          0.500
    5          0.500          0.000
 
 SOLVING FOR HEAD 
                                                   Max.-Head-Change                        Max.-Flux-Residual
  Residual-Control   Outer-Iter.   Inner-Iter.     Column Row Layer    Max.-Head-Change    Column Row Layer    Max.-Flux-Residual            L2-New               L2-Old           Solver-Max-Delh
          0                 1           9             4   14     1       0.8063943295E+00       4   14    1       0.5170237579E+03      0.1180714690E+04      0.3073873182E-01      0.8063943295E+00
          0                 2           8             4   14     1      -0.1052154724E+00       5   14    1      -0.1600160092E+03      0.2588847784E+03      0.1180714690E+04     -0.1052154724E+00
          0                 3           6             2   14     1      -0.1121031333E-01       2   14    1      -0.1644005856E+02      0.2201664726E+02      0.2588847784E+03     -0.1121031333E-01
          0                 4           5             2   14     1      -0.5747567850E-03       2   14    1      -0.8237799734E+00      0.1213120297E+01      0.2201664726E+02     -0.5747567850E-03
          0                 5           2             2   14     1      -0.2904109154E-04       2   14    1      -0.4114783817E-01      0.7377412065E-01      0.1213120297E+01     -0.2904109154E-04

    ------------------------------------------------
       NWT REQUIRED            5 OUTER ITERATIONS 
       AND A TOTAL OF         30 INNER ITERATIONS.
    ------------------------------------------------
                                                   Max.-Head-Change                        Max.-Flux-Residual
  Residual-Control   Outer-Iter.   Inner-Iter.     Column Row Layer    Max.-Head-Change    Column Row Layer    Max.-Flux-Residual            L2-New               L2-Old           Solver-Max-Delh
          0                 1           9             5   14     1      -0.5484447855E+00       5   14    1      -0.4597273202E+03      0.8596896430E+03      0.7377412065E-01     -0.5484447855E+00
          0                 2           6             3   14     1      -0.4279150006E-01       3   14    1      -0.1096319693E+03      0.1320466442E+03      0.8596896430E+03     -0.4279150006E-01
          0                 3           5             3   14     1       0.3683306411E-02       3   14    1       0.1057677238E+02      0.1243193489E+02      0.1320466442E+03      0.3683306411E-02
          0                 4           3             3   14     1       0.1821487086E-03       3   14    1       0.5285644925E+00      0.6207713020E+00      0.1243193489E+02      0.1821487086E-03
          0                 5           2             3   14     1       0.9927176792E-05       3   14    1       0.2631537034E-01      0.3161436981E-01      0.6207713020E+00      0.9927176792E-05

    ------------------------------------------------
       NWT REQUIRED            5 OUTER ITERATIONS 
       AND A TOTAL OF         25 INNER ITERATIONS.
    ------------------------------------------------
                                                   Max.-Head-Change                        Max.-Flux-Residual
  Residual-Control   Outer-Iter.   Inner-Iter.     Column Row Layer    Max.-Head-Change    Column Row Layer    Max.-Flux-Residual            L2-New               L2-Old           Solver-Max-Delh
          0                 1           8             6   13     1      -0.2827818167E-01       6   13    1      -0.2264242648E+02      0.5610475922E+02      0.3161436981E-01     -0.2827818167E-01
          0                 2           6             6   13     1       0.2449793937E-02       6   14    1       0.2267279567E+01      0.5624977870E+01      0.5610475922E+02      0.2449793937E-02
          0                 3           4             6   13     1       0.1226129246E-03       6   13    1       0.1148441964E+00      0.2822461970E+00      0.5624977870E+01      0.1226129246E-03
          0                 4           2             6    4     1       0.8262835561E-05       6   13    1       0.1020372799E-01      0.2364234301E-01      0.2822461970E+00      0.8262835561E-05

    ------------------------------------------------
       NWT REQUIRED            4 OUTER ITERATIONS 
       AND A TOTAL OF         20 INNER ITERATIONS.
    ------------------------------------------------
                                                   Max.-Head-Change                        Max.-Flux-Residual
  Residual-Control   Outer-Iter.   Inner-Iter.     Column Row Layer    Max.-Head-Change    Column Row Layer    Max.-Flux-Residual            L2-New               L2-Old           Solver-Max-Delh
          0                 1           7             6   14     1      -0.2097001315E-01       6   15    1      -0.1932309308E+02      0.4160292494E+02      0.2364234301E-01     -0.2097001315E-01
          0                 2           5             6   14     1       0.1814044228E-02       6   15    1       0.1926272269E+01      0.4163973835E+01      0.4160292494E+02      0.1814044228E-02
          0                 3           4             6   14     1       0.9152224666E-04       6   15    1       0.9756080218E-01      0.2101484682E+00      0.4163973835E+01      0.9152224666E-04

    ------------------------------------------------
       NWT REQUIRED            3 OUTER ITERATIONS 
       AND A TOTAL OF         16 INNER ITERATIONS.
    ------------------------------------------------
                                                   Max.-Head-Change                        Max.-Flux-Residual
  Residual-Control   Outer-Iter.   Inner-Iter.     Column Row Layer    Max.-Head-Change    Column Row Layer    Max.-Flux-Residual            L2-New               L2-Old           Solver-Max-Delh
          0                 1           7             6   15     1      -0.1364044432E-01       6   15    1      -0.1293377576E+02      0.2493286026E+02      0.2101484682E+00     -0.1364044432E-01
          0                 2           5             6   15     1       0.1181301269E-02       6   15    1       0.1296558063E+01      0.2497915925E+01      0.2493286026E+02      0.1181301269E-02
          0                 3           3             6   15     1       0.5568578315E-04       6   15    1       0.6104529934E-01      0.1208737285E+00      0.2497915925E+01      0.5568578315E-04

    ------------------------------------------------
       NWT REQUIRED            3 OUTER ITERATIONS 
       AND A TOTAL OF         15 INNER ITERATIONS.
    ------------------------------------------------
                                                   Max.-Head-Change                        Max.-Flux-Residual
  Residual-Control   Outer-Iter.   Inner-Iter.     Column Row Layer    Max.-Head-Change    Column Row Layer    Max.-Flux-Residual            L2-New               L2-Old           Solver-Max-Delh
          0                 1           6             6   15     1      -0.7820358433E-02       6   15    1      -0.7317001878E+01      0.1232559066E+02      0.1208737285E+00     -0.7820358433E-02
          0                 2           5             6   15     1       0.6790891358E-03       6   15    1       0.7378758504E+00      0.1234898133E+01      0.1232559066E+02      0.6790891358E-03
          0                 3           3             6   15     1       0.3511659509E-04       6   15    1       0.3605892646E-01      0.6461983701E-01      0.1234898133E+01      0.3511659509E-04

    ------------------------------------------------
       NWT REQUIRED            3 OUTER ITERATIONS 
       AND A TOTAL OF         14 INNER ITERATIONS.
    ------------------------------------------------
                                                   Max.-Head-Change                        Max.-Flux-Residual
  Residual-Control   Outer-Iter.   Inner-Iter.     Column Row Layer    Max.-Head-Change    Column Row Layer    Max.-Flux-Residual            L2-New               L2-Old           Solver-Max-Delh
          0                 1           6             6   15     1      -0.3974916657E-02       6   15    1      -0.3623704072E+01      0.6264499623E+01      0.6461983701E-01     -0.3974916657E-02
          0                 2           4             6   15     1       0.3462272804E-03       6   15    1       0.3641529773E+00      0.6305684238E+00      0.6264499623E+01      0.3462272804E-03
          0                 3           2             6   15     1       0.1619918260E-04       6   15    1       0.1938332696E-01      0.3453509662E-01      0.6305684238E+00      0.1619918260E-04

    ------------------------------------------------
       NWT REQUIRED            3 OUTER ITERATIONS 
       AND A TOTAL OF         12 INNER ITERATIONS.
    ------------------------------------------------
                                                   Max.-Head-Change                        Max.-Flux-Residual
  Residual-Control   Outer-Iter.   Inner-Iter.     Column Row Layer    Max.-Head-Change    Column Row Layer    Max.-Flux-Residual            L2-New               L2-Old           Solver-Max-Delh
          0                 1           6             5   15     1      -0.1918823751E-02       6   15    1      -0.1620368727E+01      0.3582594589E+01      0.3453509662E-01     -0.1918823751E-02
          0                 2           4             4   15     1       0.1654047672E-03       6   15    1       0.1648618805E+00      0.3598163424E+00      0.3582594589E+01      0.1654047672E-03
          0                 3           2             1   11     1       0.8809559923E-05       1   10    1       0.8366444265E-02      0.2444435136E-01      0.3598163424E+00      0.8809559923E-05

    ------------------------------------------------
       NWT REQUIRED            3 OUTER ITERATIONS 
       AND A TOTAL OF         12 INNER ITERATIONS.
    ------------------------------------------------
                                                   Max.-Head-Change                        Max.-Flux-Residual
  Residual-Control   Outer-Iter.   Inner-Iter.     Column Row Layer    Max.-Head-Change    Column Row Layer    Max.-Flux-Residual            L2-New               L2-Old           Solver-Max-Delh
          0                 1           5             1   12     1      -0.9129486208E-03       1   15    1      -0.7383526459E+00      0.1815721591E+01      0.2444435136E-01     -0.9129486208E-03
          0                 2           3             1   12     1       0.7773882689E-04       1   15    1       0.7512248680E-01      0.1822669607E+00      0.1815721591E+01      0.7773882689E-04

    ------------------------------------------------
       NWT REQUIRED            2 OUTER ITERATIONS 
       AND A TOTAL OF          8 INNER ITERATIONS.
    ------------------------------------------------
                                                   Max.-Head-Change                        Max.-Flux-Residual
  Residual-Control   Outer-Iter.   Inner-Iter.     Column Row Layer    Max.-Head-Change    Column Row Layer    Max.-Flux-Residual            L2-New               L2-Old           Solver-Max-Delh
          0                 1           5             1   12     1      -0.3405755073E-03       1   15    1      -0.2604653555E+00      0.6678858032E+00      0.1822669607E+00     -0.3405755073E-03
          0                 2           3             1   13     1       0.2924244794E-04       6   15    1       0.2803715560E-01      0.7229588235E-01      0.6678858032E+00      0.2924244794E-04

    ------------------------------------------------
       NWT REQUIRED            2 OUTER ITERATIONS 
       AND A TOTAL OF          8 INNER ITERATIONS.
    ------------------------------------------------
          0                 1           4             5   15     1      -0.7620259069E-04       6   15    1      -0.6222330881E-01      0.1473982154E+00      0.7229588235E-01     -0.7620259069E-04

    ------------------------------------------------
       NWT REQUIRED            1 OUTER ITERATIONS 
       AND A TOTAL OF          4 INNER ITERATIONS.
    ------------------------------------------------

 OUTPUT CONTROL FOR STRESS PERIOD     22   TIME STEP     1
    SAVE BUDGET
 UBDSV1 SAVING "         STORAGE" ON UNIT7013 AT TIME STEP    1, STRESS PERIOD  22
 UBDSV2 SAVING "   CONSTANT HEAD" ON UNIT7013 AT TIME STEP    1, STRESS PERIOD  22
 UBDSV1 SAVING "FLOW RIGHT FACE " ON UNIT7013 AT TIME STEP    1, STRESS PERIOD  22
 UBDSV1 SAVING "FLOW FRONT FACE " ON UNIT7013 AT TIME STEP    1, STRESS PERIOD  22
 UBDSV1 SAVING "FLOW LOWER FACE " ON UNIT7013 AT TIME STEP    1, STRESS PERIOD  22
 UBDSV4 SAVING "  STREAM LEAKAGE" ON UNIT7013 AT TIME STEP    1, STRESS PERIOD  22



 
 
 
 
 
 
 
 
 UBDSV3 SAVING "FARM  NET  RECH." ON UNIT7013 AT TIME STEP    1, STRESS PERIOD  22
 UBDSV4 SAVING " GHOST-NODE HEAD" ON UNIT7013 AT TIME STEP    1, STRESS PERIOD  22
1
  FLUX ACROSS PARENT-CHILD INTERFACE AT TIME STEP  1 IN STRESS PERIOD   22
  ------------------------------------------------------------------------
 G-N FLUX        PARENT        CHILD         DIFFERENCE      % DIFFERENCE
  RATE IN:      1.5573E+03    1.5567E+03     5.8496E-01        0.0376
 RATE OUT:      3.0925E+03    3.0921E+03     4.5410E-01        0.0147
 
 SOLVING FOR HEAD 
                                                   Max.-Head-Change                        Max.-Flux-Residual
  Residual-Control   Outer-Iter.   Inner-Iter.     Column Row Layer    Max.-Head-Change    Column Row Layer    Max.-Flux-Residual            L2-New               L2-Old           Solver-Max-Delh
          0                 1           9             5   14     1       0.7336601747E+00       5   14    1       0.5157416379E+03      0.1006330375E+04      0.1473982154E+00      0.7336601747E+00
          0                 2           8             4   14     1      -0.1260962852E+00       5   14    1      -0.1881047566E+03      0.3069987115E+03      0.1006330375E+04     -0.1260962852E+00
          0                 3           6             5   14     1      -0.7262352673E-02       5   14    1      -0.1122007476E+02      0.1804767366E+02      0.3069987115E+03     -0.7262352673E-02
          0                 4           4             5   14     1      -0.4320586710E-03       5   14    1      -0.6582102090E+00      0.1062494783E+01      0.1804767366E+02     -0.4320586710E-03
          0                 5           2             5   14     1      -0.2589973713E-04       5   14    1      -0.3823764645E-01      0.6608308454E-01      0.1062494783E+01     -0.2589973713E-04

    ------------------------------------------------
       NWT REQUIRED            5 OUTER ITERATIONS 
       AND A TOTAL OF         29 INNER ITERATIONS.
    ------------------------------------------------
                                                   Max.-Head-Change                        Max.-Flux-Residual
  Residual-Control   Outer-Iter.   Inner-Iter.     Column Row Layer    Max.-Head-Change    Column Row Layer    Max.-Flux-Residual            L2-New               L2-Old           Solver-Max-Delh
          0                 1           9             5   14     1      -0.5217594933E+00       5   14    1      -0.4419109300E+03      0.8202630788E+03      0.6608308454E-01     -0.5217594933E+00
          0                 2           7             3   14     1      -0.3171926974E-01       3   14    1      -0.7691239593E+02      0.1059051186E+03      0.8202630788E+03     -0.3171926974E-01
          0                 3           5             3   14     1       0.2735798143E-02       3   14    1       0.7321255336E+01      0.8676886562E+01      0.1059051186E+03      0.2735798143E-02
          0                 4           3             3   14     1       0.1369321661E-03       3   14    1       0.3659239200E+00      0.4354999932E+00      0.8676886562E+01      0.1369321661E-03
          0                 5           1             3   14     1       0.5750113279E-05       3   14    1       0.1822919515E-01      0.2225063449E-01      0.4354999932E+00      0.5750113279E-05

    ------------------------------------------------
       NWT REQUIRED            5 OUTER ITERATIONS 
       AND A TOTAL OF         25 INNER ITERATIONS.
    ------------------------------------------------
                                                   Max.-Head-Change                        Max.-Flux-Residual
  Residual-Control   Outer-Iter.   Inner-Iter.     Column Row Layer    Max.-Head-Change    Column Row Layer    Max.-Flux-Residual            L2-New               L2-Old           Solver-Max-Delh
          0                 1           8             6   14     1      -0.4534260373E-01       6   15    1      -0.3387273654E+02      0.8609716611E+02      0.2225063449E-01     -0.4534260373E-01
          0                 2           6             6   14     1       0.3929625967E-02       6   15    1       0.3386830207E+01      0.8607731440E+01      0.8609716611E+02      0.3929625967E-02
          0                 3           4             6   14     1       0.1951990772E-03       6   15    1       0.1722695213E+00      0.4307772998E+00      0.8607731440E+01      0.1951990772E-03
          0                 4           3             6   13     1       0.1184687057E-04       1   15    1       0.1292539493E-01      0.3081728246E-01      0.4307772998E+00      0.1184687057E-04

    ------------------------------------------------
       NWT REQUIRED            4 OUTER ITERATIONS 
       AND A TOTAL OF         21 INNER ITERATIONS.
    ------------------------------------------------
                                                   Max.-Head-Change                        Max.-Flux-Residual
  Residual-Control   Outer-Iter.   Inner-Iter.     Column Row Layer    Max.-Head-Change    Column Row Layer    Max.-Flux-Residual            L2-New               L2-Old           Solver-Max-Delh
          0                 1           7             6   14     1      -0.3120888946E-01       6   15    1      -0.2756895939E+02      0.5160160276E+02      0.3081728246E-01     -0.3120888946E-01
          0                 2           6             6   14     1       0.2706238540E-02       6   15    1       0.2757700436E+01      0.5167905676E+01      0.5160160276E+02      0.2706238540E-02
          0                 3           4             6   14     1       0.1310144184E-03       6   15    1       0.1384334126E+00      0.2568670719E+00      0.5167905676E+01      0.1310144184E-03
          0                 4           2             6   15     1       0.1039051775E-04       6   15    1       0.1304899194E-01      0.2161459181E-01      0.2568670719E+00      0.1039051775E-04

    ------------------------------------------------
       NWT REQUIRED            4 OUTER ITERATIONS 
       AND A TOTAL OF         19 INNER ITERATIONS.
    ------------------------------------------------
                                                   Max.-Head-Change                        Max.-Flux-Residual
  Residual-Control   Outer-Iter.   Inner-Iter.     Column Row Layer    Max.-Head-Change    Column Row Layer    Max.-Flux-Residual            L2-New               L2-Old           Solver-Max-Delh
          0                 1           7             6   15     1      -0.1925758679E-01       6   15    1      -0.1757890497E+02      0.3220120125E+02      0.2161459181E-01     -0.1925758679E-01
          0                 2           6             6   15     1       0.1664444465E-02       6   15    1       0.1758213213E+01      0.3222232349E+01      0.3220120125E+02      0.1664444465E-02
          0                 3           4             6   15     1       0.8028502843E-04       6   15    1       0.8123898393E-01      0.1600087158E+00      0.3222232349E+01      0.8028502843E-04

    ------------------------------------------------
       NWT REQUIRED            3 OUTER ITERATIONS 
       AND A TOTAL OF         17 INNER ITERATIONS.
    ------------------------------------------------
                                                   Max.-Head-Change                        Max.-Flux-Residual
  Residual-Control   Outer-Iter.   Inner-Iter.     Column Row Layer    Max.-Head-Change    Column Row Layer    Max.-Flux-Residual            L2-New               L2-Old           Solver-Max-Delh
          0                 1           7             6   15     1      -0.1051313986E-01       6   15    1      -0.9630266007E+01      0.1738213349E+02      0.1600087158E+00     -0.1051313986E-01
          0                 2           5             6   15     1       0.9125743052E-03       6   15    1       0.9689540702E+00      0.1741905967E+01      0.1738213349E+02      0.9125743052E-03
          0                 3           3             6   15     1       0.4698520592E-04       6   15    1       0.4701740260E-01      0.8846687161E-01      0.1741905967E+01      0.4698520592E-04

    ------------------------------------------------
       NWT REQUIRED            3 OUTER ITERATIONS 
       AND A TOTAL OF         15 INNER ITERATIONS.
    ------------------------------------------------
                                                   Max.-Head-Change                        Max.-Flux-Residual
  Residual-Control   Outer-Iter.   Inner-Iter.     Column Row Layer    Max.-Head-Change    Column Row Layer    Max.-Flux-Residual            L2-New               L2-Old           Solver-Max-Delh
          0                 1           6             6   15     1      -0.5132095815E-02       6   15    1      -0.4662590526E+01      0.8267732777E+01      0.8846687161E-01     -0.5132095815E-02
          0                 2           5             6   15     1       0.4412871469E-03       6   15    1       0.4640974643E+00      0.8216985447E+00      0.8267732777E+01      0.4412871469E-03
          0                 3           2             6   15     1       0.2279647079E-04       6   15    1       0.2293497152E-01      0.4449586343E-01      0.8216985447E+00      0.2279647079E-04

    ------------------------------------------------
       NWT REQUIRED            3 OUTER ITERATIONS 
       AND A TOTAL OF         13 INNER ITERATIONS.
    ------------------------------------------------
                                                   Max.-Head-Change                        Max.-Flux-Residual
  Residual-Control   Outer-Iter.   Inner-Iter.     Column Row Layer    Max.-Head-Change    Column Row Layer    Max.-Flux-Residual            L2-New               L2-Old           Solver-Max-Delh
          0                 1           6             5   15     1      -0.2284762465E-02       6   15    1      -0.1979073885E+01      0.3885149737E+01      0.4449586343E-01     -0.2284762465E-02
          0                 2           4             5   15     1       0.2009478601E-03       6   15    1       0.2045662756E+00      0.3960151674E+00      0.3885149737E+01      0.2009478601E-03
          0                 3           2             4   15     1       0.1067898918E-04       1   15    1       0.1070185873E-01      0.2541746580E-01      0.3960151674E+00      0.1067898918E-04

    ------------------------------------------------
       NWT REQUIRED            3 OUTER ITERATIONS 
       AND A TOTAL OF         12 INNER ITERATIONS.
    ------------------------------------------------
                                                   Max.-Head-Change                        Max.-Flux-Residual
  Residual-Control   Outer-Iter.   Inner-Iter.     Column Row Layer    Max.-Head-Change    Column Row Layer    Max.-Flux-Residual            L2-New               L2-Old           Solver-Max-Delh
          0                 1           5             1   15     1      -0.9849766203E-03       1   15    1      -0.8372225269E+00      0.1875763996E+01      0.2541746580E-01     -0.9849766203E-03
          0                 2           4             1   15     1       0.8537810996E-04       1   15    1       0.8618905518E-01      0.1927356508E+00      0.1875763996E+01      0.8537810996E-04

    ------------------------------------------------
       NWT REQUIRED            2 OUTER ITERATIONS 
       AND A TOTAL OF          9 INNER ITERATIONS.
    ------------------------------------------------
                                                   Max.-Head-Change                        Max.-Flux-Residual
  Residual-Control   Outer-Iter.   Inner-Iter.     Column Row Layer    Max.-Head-Change    Column Row Layer    Max.-Flux-Residual            L2-New               L2-Old           Solver-Max-Delh
          0                 1           5             1   12     1      -0.4265852625E-03       1   15    1      -0.3269009244E+00      0.7746718892E+00      0.1927356508E+00     -0.4265852625E-03
          0                 2           3             1   12     2       0.3581837032E-04       1   10    1       0.3153017978E-01      0.7937972235E-01      0.7746718892E+00      0.3581837032E-04

    ------------------------------------------------
       NWT REQUIRED            2 OUTER ITERATIONS 
       AND A TOTAL OF          8 INNER ITERATIONS.
    ------------------------------------------------
                                                   Max.-Head-Change                        Max.-Flux-Residual
  Residual-Control   Outer-Iter.   Inner-Iter.     Column Row Layer    Max.-Head-Change    Column Row Layer    Max.-Flux-Residual            L2-New               L2-Old           Solver-Max-Delh
          0                 1           4             1   11     1      -0.1217521940E-03       1   10    1      -0.9747494746E-01      0.2109277494E+00      0.7937972235E-01     -0.1217521940E-03
          0                 2           2             1   10     1       0.9607452887E-05       1   10    1       0.1310857292E-01      0.2549857153E-01      0.2109277494E+00      0.9607452887E-05

    ------------------------------------------------
       NWT REQUIRED            2 OUTER ITERATIONS 
       AND A TOTAL OF          6 INNER ITERATIONS.
    ------------------------------------------------

 OUTPUT CONTROL FOR STRESS PERIOD     22   TIME STEP     2
    SAVE BUDGET
 UBDSV1 SAVING "         STORAGE" ON UNIT7013 AT TIME STEP    2, STRESS PERIOD  22
 UBDSV2 SAVING "   CONSTANT HEAD" ON UNIT7013 AT TIME STEP    2, STRESS PERIOD  22
 UBDSV1 SAVING "FLOW RIGHT FACE " ON UNIT7013 AT TIME STEP    2, STRESS PERIOD  22
 UBDSV1 SAVING "FLOW FRONT FACE " ON UNIT7013 AT TIME STEP    2, STRESS PERIOD  22
 UBDSV1 SAVING "FLOW LOWER FACE " ON UNIT7013 AT TIME STEP    2, STRESS PERIOD  22
 UBDSV4 SAVING "  STREAM LEAKAGE" ON UNIT7013 AT TIME STEP    2, STRESS PERIOD  22



 
 
 
 
 
 
 
 
 UBDSV3 SAVING "FARM  NET  RECH." ON UNIT7013 AT TIME STEP    2, STRESS PERIOD  22
 UBDSV4 SAVING " GHOST-NODE HEAD" ON UNIT7013 AT TIME STEP    2, STRESS PERIOD  22
1
  VOLUMETRIC BUDGET FOR ENTIRE MODEL AT END OF TIME STEP    2 IN STRESS PERIOD     22
  ------------------------------------------------------------------------------

     CUMULATIVE VOLUMES      L**3       RATES FOR THIS TIME STEP      L**3/T
     ------------------                 ------------------------

           IN:                                      IN:
           ---                                      ---
             STORAGE =      207180.2500               STORAGE =         127.9209
       CONSTANT HEAD =           0.0000         CONSTANT HEAD =           0.0000
      STREAM LEAKAGE =      565039.0000        STREAM LEAKAGE =        1142.7084
          FARM WELLS =           0.0000            FARM WELLS =           0.0000
    FARM  NET  RECH. =      339029.2812      FARM  NET  RECH. =        1142.7084
     GHOST-NODE HEAD =     4825601.0000       GHOST-NODE HEAD =        1518.6656

            TOTAL IN =     5936849.5000              TOTAL IN =        3932.0034

          OUT:                                     OUT:
          ----                                     ----
             STORAGE =     4093309.2500               STORAGE =          35.6466
       CONSTANT HEAD =           0.0000         CONSTANT HEAD =           0.0000
      STREAM LEAKAGE =           0.0000        STREAM LEAKAGE =           0.0000
          FARM WELLS =       78522.2266            FARM WELLS =         711.7002
    FARM  NET  RECH. =           0.0000      FARM  NET  RECH. =           0.0000
     GHOST-NODE HEAD =     1765014.7500       GHOST-NODE HEAD =        3184.6616

           TOTAL OUT =     5936846.0000             TOTAL OUT =        3932.0083

            IN - OUT =           3.5000              IN - OUT =      -4.8828E-03

 PERCENT DISCREPANCY =           0.00     PERCENT DISCREPANCY =          -0.00






          TIME SUMMARY AT END OF TIME STEP     2 IN STRESS PERIOD     22
                    SECONDS     MINUTES      HOURS       DAYS        YEARS
                    -----------------------------------------------------------
   TIME STEP LENGTH 1.31414E+06  21902.      365.04      15.210     4.16427E-02
 STRESS PERIOD TIME 2.62829E+06  43805.      730.08      30.420     8.32854E-02
         TOTAL TIME 5.78223E+07 9.63706E+05  16062.      669.24      1.8323    
1
1
  FLUX ACROSS PARENT-CHILD INTERFACE AT TIME STEP  2 IN STRESS PERIOD   22
  ------------------------------------------------------------------------
 G-N FLUX        PARENT        CHILD         DIFFERENCE      % DIFFERENCE
  RATE IN:      1.5196E+03    1.5187E+03     9.0393E-01        0.0595
 RATE OUT:      3.1850E+03    3.1847E+03     3.7451E-01        0.0118
1
                            STRESS PERIOD NO.     23, LENGTH =   30.42000    
                            -----------------------------------------------

                              NUMBER OF TIME STEPS =     2

                               MULTIPLIER FOR DELT =     1.000

                            INITIAL TIME STEP SIZE =   15.21000    

 REUSING STREAM SEGMENT DATA FROM LAST STRESS PERIOD

 Parameter:  WELLS1
 WELL NO. LAYER    ROW    COL  F-WELL ID    FARM ID         QMAX         QMAXRESET       LGRGRID         
 --------------------------------------------------------------------------------------------------------
       1      1      2      2          5          2      2.0000E+03              0              0
       2      1      5      5          6          2      1.0000E+03              0              0

 NUMBER OF ACTIVE FARM WELLS:        2

 FARM-ID  NUMBER OF WELLS PER FARM  TOTAL MAX.CAPACITY PER FARM
       1                         0                       0.0000
       2                         2                    3000.0000
       3                         0                       0.0000
       4                         0                       0.0000
       5                         0                       0.0000
       6                         0                       0.0000
       7                         0                       0.0000
       8                         0                       0.0000

Transpiratory and Evaporative Fractions of Crop Consumptive Use
    % Transpiration % Evap. for Precip. % Evap. for Irrig.
    3          0.954          0.046          0.046
    5          0.927          0.073          0.000

FRACTIONS OF IN-EFFICIENT LOSSES TO SW-RUNOFF FROM 
     PRECIPITATION:  IRRIGATION:
    3          0.600          0.500
    5          0.500          0.000
 
 SOLVING FOR HEAD 
                                                   Max.-Head-Change                        Max.-Flux-Residual
  Residual-Control   Outer-Iter.   Inner-Iter.     Column Row Layer    Max.-Head-Change    Column Row Layer    Max.-Flux-Residual            L2-New               L2-Old           Solver-Max-Delh
          0                 1           9             3   14     1      -0.2832084639E+00       3   14    1      -0.4627519022E+03      0.7720508530E+03      0.2549857153E-01     -0.2832084639E+00
          0                 2           7             3   14     1       0.2410138938E-01       3   14    1       0.4500620568E+02      0.7718562207E+02      0.7720508530E+03      0.2410138938E-01
          0                 3           5             3   14     1       0.1205056813E-02       3   14    1       0.2241135767E+01      0.3857494256E+01      0.7718562207E+02      0.1205056813E-02
          0                 4           3             3   14     1       0.5823118451E-04       3   14    1       0.1120345049E+00      0.1942031648E+00      0.3857494256E+01      0.5823118451E-04

    ------------------------------------------------
       NWT REQUIRED            4 OUTER ITERATIONS 
       AND A TOTAL OF         24 INNER ITERATIONS.
    ------------------------------------------------
                                                   Max.-Head-Change                        Max.-Flux-Residual
  Residual-Control   Outer-Iter.   Inner-Iter.     Column Row Layer    Max.-Head-Change    Column Row Layer    Max.-Flux-Residual            L2-New               L2-Old           Solver-Max-Delh
          0                 1           8             1   14     1      -0.2942643996E+00       1   14    1      -0.4547576287E+03      0.4920909136E+03      0.1942031648E+00     -0.2942643996E+00
          0                 2           7             1   14     1       0.2485988926E-01       1   14    1       0.4400070979E+02      0.4776540230E+02      0.4920909136E+03      0.2485988926E-01
          0                 3           4             1   14     1       0.1256921799E-02       1   14    1       0.2217533765E+01      0.2403829958E+01      0.4776540230E+02      0.1256921799E-02
          0                 4           3             1   14     1       0.6325115777E-04       1   14    1       0.1048249434E+00      0.1168136610E+00      0.2403829958E+01      0.6325115777E-04

    ------------------------------------------------
       NWT REQUIRED            4 OUTER ITERATIONS 
       AND A TOTAL OF         22 INNER ITERATIONS.
    ------------------------------------------------
                                                   Max.-Head-Change                        Max.-Flux-Residual
  Residual-Control   Outer-Iter.   Inner-Iter.     Column Row Layer    Max.-Head-Change    Column Row Layer    Max.-Flux-Residual            L2-New               L2-Old           Solver-Max-Delh
          0                 1           8             1   11     1       0.4836807574E-01       1   10    1       0.4257226844E+02      0.8491019865E+02      0.1168136610E+00      0.4836807574E-01
          0                 2           6             1   11     1      -0.4149069299E-02       1   12    1      -0.4237555675E+01      0.8467004245E+01      0.8491019865E+02     -0.4149069299E-02
          0                 3           4             1   11     1      -0.2085842282E-03       1   10    1      -0.2215594446E+00      0.4286479479E+00      0.8467004245E+01     -0.2085842282E-03
          0                 4           2             1   12     1      -0.1020094713E-04       1   12    1      -0.1207654225E-01      0.2422639766E-01      0.4286479479E+00     -0.1020094713E-04

    ------------------------------------------------
       NWT REQUIRED            4 OUTER ITERATIONS 
       AND A TOTAL OF         20 INNER ITERATIONS.
    ------------------------------------------------
                                                   Max.-Head-Change                        Max.-Flux-Residual
  Residual-Control   Outer-Iter.   Inner-Iter.     Column Row Layer    Max.-Head-Change    Column Row Layer    Max.-Flux-Residual            L2-New               L2-Old           Solver-Max-Delh
          0                 1           7             1   15     1      -0.1768886088E-01       1   15    1      -0.1833896090E+02      0.4642812066E+02      0.2422639766E-01     -0.1768886088E-01
          0                 2           5             1   15     1       0.1520754838E-02       1   15    1       0.1827426113E+01      0.4627443188E+01      0.4642812066E+02      0.1520754838E-02
          0                 3           3             1   15     1       0.7526724913E-04       1   11    1      -0.9128645936E-01      0.2316508301E+00      0.4627443188E+01      0.7526724913E-04

    ------------------------------------------------
       NWT REQUIRED            3 OUTER ITERATIONS 
       AND A TOTAL OF         15 INNER ITERATIONS.
    ------------------------------------------------
                                                   Max.-Head-Change                        Max.-Flux-Residual
  Residual-Control   Outer-Iter.   Inner-Iter.     Column Row Layer    Max.-Head-Change    Column Row Layer    Max.-Flux-Residual            L2-New               L2-Old           Solver-Max-Delh
          0                 1           7             1   15     1      -0.1721502509E-01       1   15    1      -0.1659099316E+02      0.2843387131E+02      0.2316508301E+00     -0.1721502509E-01
          0                 2           5             1   15     1       0.1468596904E-02       1   15    1       0.1639419862E+01      0.2814128376E+01      0.2843387131E+02      0.1468596904E-02
          0                 3           4             1   15     1       0.7737144303E-04       1   15    1       0.8509084233E-01      0.1481052014E+00      0.2814128376E+01      0.7737144303E-04

    ------------------------------------------------
       NWT REQUIRED            3 OUTER ITERATIONS 
       AND A TOTAL OF         16 INNER ITERATIONS.
    ------------------------------------------------
                                                   Max.-Head-Change                        Max.-Flux-Residual
  Residual-Control   Outer-Iter.   Inner-Iter.     Column Row Layer    Max.-Head-Change    Column Row Layer    Max.-Flux-Residual            L2-New               L2-Old           Solver-Max-Delh
          0                 1           7             1   15     1      -0.1233040045E-01       1   15    1      -0.1150446002E+02      0.1915213962E+02      0.1481052014E+00     -0.1233040045E-01
          0                 2           5             1   15     1       0.1050363782E-02       1   15    1       0.1134332367E+01      0.1892755516E+01      0.1915213962E+02      0.1050363782E-02
          0                 3           4             1   15     1       0.5314974163E-04       1   15    1       0.5786122935E-01      0.9726345812E-01      0.1892755516E+01      0.5314974163E-04

    ------------------------------------------------
       NWT REQUIRED            3 OUTER ITERATIONS 
       AND A TOTAL OF         16 INNER ITERATIONS.
    ------------------------------------------------
                                                   Max.-Head-Change                        Max.-Flux-Residual
  Residual-Control   Outer-Iter.   Inner-Iter.     Column Row Layer    Max.-Head-Change    Column Row Layer    Max.-Flux-Residual            L2-New               L2-Old           Solver-Max-Delh
          0                 1           6             1   15     1      -0.7169445477E-02       1   15    1      -0.6565816595E+01      0.1129799936E+02      0.9726345812E-01     -0.7169445477E-02
          0                 2           5             1   15     1       0.6129319085E-03       1   15    1       0.6491510363E+00      0.1121627687E+01      0.1129799936E+02      0.6129319085E-03
          0                 3           3             1   15     1       0.3266686014E-04       1   15    1       0.3422675736E-01      0.5914869209E-01      0.1121627687E+01      0.3266686014E-04

    ------------------------------------------------
       NWT REQUIRED            3 OUTER ITERATIONS 
       AND A TOTAL OF         14 INNER ITERATIONS.
    ------------------------------------------------
                                                   Max.-Head-Change                        Max.-Flux-Residual
  Residual-Control   Outer-Iter.   Inner-Iter.     Column Row Layer    Max.-Head-Change    Column Row Layer    Max.-Flux-Residual            L2-New               L2-Old           Solver-Max-Delh
          0                 1           6             1   15     1      -0.3460769563E-02       1   15    1      -0.3146326064E+01      0.5438504042E+01      0.5914869209E-01     -0.3460769563E-02
          0                 2           5             1   15     1       0.3006357938E-03       1   15    1       0.3167718652E+00      0.5446950634E+00      0.5438504042E+01      0.3006357938E-03
          0                 3           2             1   13     1       0.1084152234E-04       1   15    1       0.9405612887E-02      0.2523381064E-01      0.5446950634E+00      0.1084152234E-04

    ------------------------------------------------
       NWT REQUIRED            3 OUTER ITERATIONS 
       AND A TOTAL OF         13 INNER ITERATIONS.
    ------------------------------------------------
                                                   Max.-Head-Change                        Max.-Flux-Residual
  Residual-Control   Outer-Iter.   Inner-Iter.     Column Row Layer    Max.-Head-Change    Column Row Layer    Max.-Flux-Residual            L2-New               L2-Old           Solver-Max-Delh
          0                 1           6             1   15     1      -0.1384770053E-02       1   15    1      -0.1271970598E+01      0.2166840958E+01      0.2523381064E-01     -0.1384770053E-02
          0                 2           4             1   15     1       0.1219300486E-03       1   15    1       0.1334085595E+00      0.2219409438E+00      0.2166840958E+01      0.1219300486E-03
          0                 3           2             3   15     1       0.6593622438E-05       6    4    1       0.7784077316E-02      0.1752886594E-01      0.2219409438E+00      0.6593622438E-05

    ------------------------------------------------
       NWT REQUIRED            3 OUTER ITERATIONS 
       AND A TOTAL OF         12 INNER ITERATIONS.
    ------------------------------------------------
                                                   Max.-Head-Change                        Max.-Flux-Residual
  Residual-Control   Outer-Iter.   Inner-Iter.     Column Row Layer    Max.-Head-Change    Column Row Layer    Max.-Flux-Residual            L2-New               L2-Old           Solver-Max-Delh
          0                 1           5             1   15     1      -0.4104326388E-03       1   15    1      -0.3741533239E+00      0.7758005172E+00      0.1752886594E-01     -0.4104326388E-03
          0                 2           3             3   15     1       0.3492580672E-04       1   15    1       0.3539787402E-01      0.7695872147E-01      0.7758005172E+00      0.3492580672E-04

    ------------------------------------------------
       NWT REQUIRED            2 OUTER ITERATIONS 
       AND A TOTAL OF          8 INNER ITERATIONS.
    ------------------------------------------------
                                                   Max.-Head-Change                        Max.-Flux-Residual
  Residual-Control   Outer-Iter.   Inner-Iter.     Column Row Layer    Max.-Head-Change    Column Row Layer    Max.-Flux-Residual            L2-New               L2-Old           Solver-Max-Delh
          0                 1           4             6   13     2      -0.1544943634E-03       6   15    1      -0.1036879384E+00      0.3586464228E+00      0.7695872147E-01     -0.1544943634E-03
          0                 2           2             6   13     2       0.1282866435E-04       1   15    1       0.1334785431E-01      0.4241719310E-01      0.3586464228E+00      0.1282866435E-04

    ------------------------------------------------
       NWT REQUIRED            2 OUTER ITERATIONS 
       AND A TOTAL OF          6 INNER ITERATIONS.
    ------------------------------------------------

 OUTPUT CONTROL FOR STRESS PERIOD     23   TIME STEP     1
    SAVE BUDGET
 UBDSV1 SAVING "         STORAGE" ON UNIT7013 AT TIME STEP    1, STRESS PERIOD  23
 UBDSV2 SAVING "   CONSTANT HEAD" ON UNIT7013 AT TIME STEP    1, STRESS PERIOD  23
 UBDSV1 SAVING "FLOW RIGHT FACE " ON UNIT7013 AT TIME STEP    1, STRESS PERIOD  23
 UBDSV1 SAVING "FLOW FRONT FACE " ON UNIT7013 AT TIME STEP    1, STRESS PERIOD  23
 UBDSV1 SAVING "FLOW LOWER FACE " ON UNIT7013 AT TIME STEP    1, STRESS PERIOD  23
 UBDSV4 SAVING "  STREAM LEAKAGE" ON UNIT7013 AT TIME STEP    1, STRESS PERIOD  23



 
 
 
 
 
 
 
 
 UBDSV3 SAVING "FARM  NET  RECH." ON UNIT7013 AT TIME STEP    1, STRESS PERIOD  23
 UBDSV4 SAVING " GHOST-NODE HEAD" ON UNIT7013 AT TIME STEP    1, STRESS PERIOD  23
1
  FLUX ACROSS PARENT-CHILD INTERFACE AT TIME STEP  1 IN STRESS PERIOD   23
  ------------------------------------------------------------------------
 G-N FLUX        PARENT        CHILD         DIFFERENCE      % DIFFERENCE
  RATE IN:      2.6041E+03    2.6038E+03     2.5854E-01        0.0099
 RATE OUT:      3.0272E+03    3.0275E+03    -2.9199E-01       -0.0096
 
 SOLVING FOR HEAD 
                                                   Max.-Head-Change                        Max.-Flux-Residual
  Residual-Control   Outer-Iter.   Inner-Iter.     Column Row Layer    Max.-Head-Change    Column Row Layer    Max.-Flux-Residual            L2-New               L2-Old           Solver-Max-Delh
          0                 1           9             1   14     1       0.4464213195E+00       1   14    1       0.5526136924E+03      0.6211686763E+03      0.4241719310E-01      0.4464213195E+00
          0                 2           7             1   14     1      -0.3890531108E-01       1   14    1      -0.5701861733E+02      0.6351773677E+02      0.6211686763E+03     -0.3890531108E-01
          0                 3           6             1   14     1      -0.1978125246E-02       1   14    1      -0.2893581693E+01      0.3224215888E+01      0.6351773677E+02     -0.1978125246E-02
          0                 4           4             1   14     1      -0.1010757352E-03       1   14    1      -0.1485978550E+00      0.1644630279E+00      0.3224215888E+01     -0.1010757352E-03
          0                 5           2             1   14     1      -0.4718537325E-05       1   14    1      -0.1076864032E-01      0.1656161365E-01      0.1644630279E+00     -0.4718537325E-05

    ------------------------------------------------
       NWT REQUIRED            5 OUTER ITERATIONS 
       AND A TOTAL OF         28 INNER ITERATIONS.
    ------------------------------------------------
                                                   Max.-Head-Change                        Max.-Flux-Residual
  Residual-Control   Outer-Iter.   Inner-Iter.     Column Row Layer    Max.-Head-Change    Column Row Layer    Max.-Flux-Residual            L2-New               L2-Old           Solver-Max-Delh
          0                 1           8             1   14     1      -0.2966988750E+00       1   14    1      -0.4599971329E+03      0.4896362973E+03      0.1656161365E-01     -0.2966988750E+00
          0                 2           7             1   14     1       0.2502635259E-01       1   14    1       0.4441112447E+02      0.4740130476E+02      0.4896362973E+03      0.2502635259E-01
          0                 3           4             1   14     1       0.1266157468E-02       1   14    1       0.2236843336E+01      0.2384534335E+01      0.4740130476E+02      0.1266157468E-02
          0                 4           3             1   14     1       0.6172652287E-04       1   14    1       0.1125694294E+00      0.1205432178E+00      0.2384534335E+01      0.6172652287E-04

    ------------------------------------------------
       NWT REQUIRED            4 OUTER ITERATIONS 
       AND A TOTAL OF         22 INNER ITERATIONS.
    ------------------------------------------------
                                                   Max.-Head-Change                        Max.-Flux-Residual
  Residual-Control   Outer-Iter.   Inner-Iter.     Column Row Layer    Max.-Head-Change    Column Row Layer    Max.-Flux-Residual            L2-New               L2-Old           Solver-Max-Delh
          0                 1           7             1    1     2       0.2398305965E-01       6   14    1      -0.1237550198E+02      0.3826506945E+02      0.1205432178E+00      0.2398305965E-01
          0                 2           6             1    1     2      -0.2071453100E-02       6   14    1       0.1242035065E+01      0.3826182782E+01      0.3826506945E+02     -0.2071453100E-02
          0                 3           4             1    1     2      -0.1032509614E-03       6   15    1       0.6706735436E-01      0.1915476320E+00      0.3826182782E+01     -0.1032509614E-03
          0                 4           2             1   12     1      -0.5538684270E-05       1   12    1      -0.9450723534E-02      0.1680311911E-01      0.1915476320E+00     -0.5538684270E-05

    ------------------------------------------------
       NWT REQUIRED            4 OUTER ITERATIONS 
       AND A TOTAL OF         19 INNER ITERATIONS.
    ------------------------------------------------
                                                   Max.-Head-Change                        Max.-Flux-Residual
  Residual-Control   Outer-Iter.   Inner-Iter.     Column Row Layer    Max.-Head-Change    Column Row Layer    Max.-Flux-Residual            L2-New               L2-Old           Solver-Max-Delh
          0                 1           7             1   14     1      -0.1095268041E-01       1   15    1      -0.1020639643E+02      0.2072361800E+02      0.1680311911E-01     -0.1095268041E-01
          0                 2           5             1   14     1       0.9386912230E-03       1   15    1       0.1010332229E+01      0.2062641909E+01      0.2072361800E+02      0.9386912230E-03
          0                 3           3             1   15     1       0.4597525048E-04       1   15    1       0.5250536551E-01      0.1005105877E+00      0.2062641909E+01      0.4597525048E-04

    ------------------------------------------------
       NWT REQUIRED            3 OUTER ITERATIONS 
       AND A TOTAL OF         15 INNER ITERATIONS.
    ------------------------------------------------
                                                   Max.-Head-Change                        Max.-Flux-Residual
  Residual-Control   Outer-Iter.   Inner-Iter.     Column Row Layer    Max.-Head-Change    Column Row Layer    Max.-Flux-Residual            L2-New               L2-Old           Solver-Max-Delh
          0                 1           6             1   15     1      -0.9445220334E-02       1   15    1      -0.8821399109E+01      0.1468347650E+02      0.1005105877E+00     -0.9445220334E-02
          0                 2           5             1   15     1       0.8085667282E-03       1   15    1       0.8783022785E+00      0.1452509701E+01      0.1468347650E+02      0.8085667282E-03
          0                 3           3             1   15     1       0.4264671305E-04       1   15    1       0.4698262695E-01      0.8026636883E-01      0.1452509701E+01      0.4264671305E-04

    ------------------------------------------------
       NWT REQUIRED            3 OUTER ITERATIONS 
       AND A TOTAL OF         14 INNER ITERATIONS.
    ------------------------------------------------
                                                   Max.-Head-Change                        Max.-Flux-Residual
  Residual-Control   Outer-Iter.   Inner-Iter.     Column Row Layer    Max.-Head-Change    Column Row Layer    Max.-Flux-Residual            L2-New               L2-Old           Solver-Max-Delh
          0                 1           6             1   15     1      -0.5974586218E-02       1   15    1      -0.5580646255E+01      0.9066416752E+01      0.8026636883E-01     -0.5974586218E-02
          0                 2           5             1   15     1       0.5185702746E-03       1   15    1       0.5641569796E+00      0.9062486722E+00      0.9066416752E+01      0.5185702746E-03
          0                 3           3             1   14     1       0.2080073620E-04       1   15    1       0.2128911868E-01      0.4150363928E-01      0.9062486722E+00      0.2080073620E-04

    ------------------------------------------------
       NWT REQUIRED            3 OUTER ITERATIONS 
       AND A TOTAL OF         14 INNER ITERATIONS.
    ------------------------------------------------
                                                   Max.-Head-Change                        Max.-Flux-Residual
  Residual-Control   Outer-Iter.   Inner-Iter.     Column Row Layer    Max.-Head-Change    Column Row Layer    Max.-Flux-Residual            L2-New               L2-Old           Solver-Max-Delh
          0                 1           6             1   15     1      -0.3134457976E-02       1   15    1      -0.2950966875E+01      0.4838201419E+01      0.4150363928E-01     -0.3134457976E-02
          0                 2           4             1   15     1       0.2652114678E-03       1   15    1       0.2896939148E+00      0.4767031140E+00      0.4838201419E+01      0.2652114678E-03
          0                 3           2             1   15     1       0.1312297380E-04       1   15    1       0.1751327602E-01      0.2942859937E-01      0.4767031140E+00      0.1312297380E-04

    ------------------------------------------------
       NWT REQUIRED            3 OUTER ITERATIONS 
       AND A TOTAL OF         12 INNER ITERATIONS.
    ------------------------------------------------
                                                   Max.-Head-Change                        Max.-Flux-Residual
  Residual-Control   Outer-Iter.   Inner-Iter.     Column Row Layer    Max.-Head-Change    Column Row Layer    Max.-Flux-Residual            L2-New               L2-Old           Solver-Max-Delh
          0                 1           5             1   15     1      -0.1434064379E-02       1   15    1      -0.1354601594E+01      0.2392481206E+01      0.2942859937E-01     -0.1434064379E-02
          0                 2           4             1   15     1       0.1198321454E-03       1   15    1       0.1290749458E+00      0.2369895715E+00      0.2392481206E+01      0.1198321454E-03
          0                 3           2             6    5     1       0.6243875453E-05       6    4    1       0.7405292126E-02      0.1818986446E-01      0.2369895715E+00      0.6243875453E-05

    ------------------------------------------------
       NWT REQUIRED            3 OUTER ITERATIONS 
       AND A TOTAL OF         11 INNER ITERATIONS.
    ------------------------------------------------
                                                   Max.-Head-Change                        Max.-Flux-Residual
  Residual-Control   Outer-Iter.   Inner-Iter.     Column Row Layer    Max.-Head-Change    Column Row Layer    Max.-Flux-Residual            L2-New               L2-Old           Solver-Max-Delh
          0                 1           5             2    1     2      -0.5933488084E-03       1   15    1      -0.5515326754E+00      0.1128846869E+01      0.1818986446E-01     -0.5933488084E-03
          0                 2           4             1   15     1       0.5122915894E-04       1   15    1       0.5692469515E-01      0.1150969834E+00      0.1128846869E+01      0.5122915894E-04

    ------------------------------------------------
       NWT REQUIRED            2 OUTER ITERATIONS 
       AND A TOTAL OF          9 INNER ITERATIONS.
    ------------------------------------------------
                                                   Max.-Head-Change                        Max.-Flux-Residual
  Residual-Control   Outer-Iter.   Inner-Iter.     Column Row Layer    Max.-Head-Change    Column Row Layer    Max.-Flux-Residual            L2-New               L2-Old           Solver-Max-Delh
          0                 1           4             1    1     2      -0.2774067557E-03       1   15    1      -0.2038416968E+00      0.5045796340E+00      0.1150969834E+00     -0.2774067557E-03
          0                 2           3             1    1     2       0.2343628987E-04       2   15    1       0.2073652938E-01      0.5419617840E-01      0.5045796340E+00      0.2343628987E-04

    ------------------------------------------------
       NWT REQUIRED            2 OUTER ITERATIONS 
       AND A TOTAL OF          7 INNER ITERATIONS.
    ------------------------------------------------

 OUTPUT CONTROL FOR STRESS PERIOD     23   TIME STEP     2
    SAVE BUDGET
 UBDSV1 SAVING "         STORAGE" ON UNIT7013 AT TIME STEP    2, STRESS PERIOD  23
 UBDSV2 SAVING "   CONSTANT HEAD" ON UNIT7013 AT TIME STEP    2, STRESS PERIOD  23
 UBDSV1 SAVING "FLOW RIGHT FACE " ON UNIT7013 AT TIME STEP    2, STRESS PERIOD  23
 UBDSV1 SAVING "FLOW FRONT FACE " ON UNIT7013 AT TIME STEP    2, STRESS PERIOD  23
 UBDSV1 SAVING "FLOW LOWER FACE " ON UNIT7013 AT TIME STEP    2, STRESS PERIOD  23
 UBDSV4 SAVING "  STREAM LEAKAGE" ON UNIT7013 AT TIME STEP    2, STRESS PERIOD  23



 
 
 
 
 
 
 
 
 UBDSV3 SAVING "FARM  NET  RECH." ON UNIT7013 AT TIME STEP    2, STRESS PERIOD  23
 UBDSV4 SAVING " GHOST-NODE HEAD" ON UNIT7013 AT TIME STEP    2, STRESS PERIOD  23
1
  VOLUMETRIC BUDGET FOR ENTIRE MODEL AT END OF TIME STEP    2 IN STRESS PERIOD     23
  ------------------------------------------------------------------------------

     CUMULATIVE VOLUMES      L**3       RATES FOR THIS TIME STEP      L**3/T
     ------------------                 ------------------------

           IN:                                      IN:
           ---                                      ---
             STORAGE =      209994.9375               STORAGE =           0.0000
       CONSTANT HEAD =           0.0000         CONSTANT HEAD =           0.0000
      STREAM LEAKAGE =      570464.0000        STREAM LEAKAGE =         178.3375
          FARM WELLS =           0.0000            FARM WELLS =           0.0000
    FARM  NET  RECH. =      344454.2812      FARM  NET  RECH. =         178.3375
     GHOST-NODE HEAD =     4910743.5000       GHOST-NODE HEAD =        2993.9978

            TOTAL IN =     6035657.0000              TOTAL IN =        3350.6729

          OUT:                                     OUT:
          ----                                     ----
             STORAGE =     4099475.0000               STORAGE =         287.3800
       CONSTANT HEAD =           0.0000         CONSTANT HEAD =           0.0000
      STREAM LEAKAGE =           0.0000        STREAM LEAKAGE =           0.0000
          FARM WELLS =       78522.2266            FARM WELLS =           0.0000
    FARM  NET  RECH. =           0.0000      FARM  NET  RECH. =           0.0000
     GHOST-NODE HEAD =     1857655.6250       GHOST-NODE HEAD =        3063.2751

           TOTAL OUT =     6035653.0000             TOTAL OUT =        3350.6553

            IN - OUT =           4.0000              IN - OUT =       1.7578E-02

 PERCENT DISCREPANCY =           0.00     PERCENT DISCREPANCY =           0.00






          TIME SUMMARY AT END OF TIME STEP     2 IN STRESS PERIOD     23
                    SECONDS     MINUTES      HOURS       DAYS        YEARS
                    -----------------------------------------------------------
   TIME STEP LENGTH 1.31414E+06  21902.      365.04      15.210     4.16427E-02
 STRESS PERIOD TIME 2.62829E+06  43805.      730.08      30.420     8.32854E-02
         TOTAL TIME 6.04506E+07 1.00751E+06  16792.      699.66      1.9156    
1
1
  FLUX ACROSS PARENT-CHILD INTERFACE AT TIME STEP  2 IN STRESS PERIOD   23
  ------------------------------------------------------------------------
 G-N FLUX        PARENT        CHILD         DIFFERENCE      % DIFFERENCE
  RATE IN:      2.9946E+03    2.9940E+03     5.9741E-01        0.0200
 RATE OUT:      3.0636E+03    3.0633E+03     3.6890E-01        0.0120
1
                            STRESS PERIOD NO.     24, LENGTH =   30.42000    
                            -----------------------------------------------

                              NUMBER OF TIME STEPS =     2

                               MULTIPLIER FOR DELT =     1.000

                            INITIAL TIME STEP SIZE =   15.21000    

 REUSING STREAM SEGMENT DATA FROM LAST STRESS PERIOD

 Parameter:  WELLS1
 WELL NO. LAYER    ROW    COL  F-WELL ID    FARM ID         QMAX         QMAXRESET       LGRGRID         
 --------------------------------------------------------------------------------------------------------
       1      1      2      2          5          2      2.0000E+03              0              0
       2      1      5      5          6          2      1.0000E+03              0              0

 NUMBER OF ACTIVE FARM WELLS:        2

 FARM-ID  NUMBER OF WELLS PER FARM  TOTAL MAX.CAPACITY PER FARM
       1                         0                       0.0000
       2                         2                    3000.0000
       3                         0                       0.0000
       4                         0                       0.0000
       5                         0                       0.0000
       6                         0                       0.0000
       7                         0                       0.0000
       8                         0                       0.0000

Transpiratory and Evaporative Fractions of Crop Consumptive Use
    % Transpiration % Evap. for Precip. % Evap. for Irrig.
    3          0.957          0.043          0.043
    5          0.926          0.074          0.000

FRACTIONS OF IN-EFFICIENT LOSSES TO SW-RUNOFF FROM 
     PRECIPITATION:  IRRIGATION:
    3          0.600          0.500
    5          0.830          0.000
 
 SOLVING FOR HEAD 
                                                   Max.-Head-Change                        Max.-Flux-Residual
  Residual-Control   Outer-Iter.   Inner-Iter.     Column Row Layer    Max.-Head-Change    Column Row Layer    Max.-Flux-Residual            L2-New               L2-Old           Solver-Max-Delh
          0                 1          10             4   14     1       0.1017382657E+01       1   14    1       0.6231324448E+03      0.1414870857E+04      0.5419617840E-01      0.1017382657E+01
          0                 2           9             4   14     1      -0.2273771864E+00       5   14    1      -0.2831226216E+03      0.6302099810E+03      0.1414870857E+04     -0.2273771864E+00
          0                 3           7             4   14     1      -0.1288549380E-01       5   14    1      -0.1685693187E+02      0.3598043740E+02      0.6302099810E+03     -0.1288549380E-01
          0                 4           5             5   14     1      -0.7250817549E-03       6   14    1      -0.9747905909E+00      0.2021073091E+01      0.3598043740E+02     -0.7250817549E-03
          0                 5           3             4   14     1      -0.3989386666E-04       5   14    1      -0.5580479244E-01      0.1122477506E+00      0.2021073091E+01     -0.3989386666E-04

    ------------------------------------------------
       NWT REQUIRED            5 OUTER ITERATIONS 
       AND A TOTAL OF         34 INNER ITERATIONS.
    ------------------------------------------------
                                                   Max.-Head-Change                        Max.-Flux-Residual
  Residual-Control   Outer-Iter.   Inner-Iter.     Column Row Layer    Max.-Head-Change    Column Row Layer    Max.-Flux-Residual            L2-New               L2-Old           Solver-Max-Delh
          0                 1           9             1   12     2       0.1387155088E+00       1   15    1       0.1305132326E+03      0.3203581307E+03      0.1122477506E+00      0.1387155088E+00
          0                 2           7             1   12     2      -0.1188982668E-01       1   15    1      -0.1307384978E+02      0.3216844541E+02      0.3203581307E+03     -0.1188982668E-01
          0                 3           5             1   12     2      -0.6035841816E-03       1   15    1      -0.6483681314E+00      0.1615593602E+01      0.3216844541E+02     -0.6035841816E-03
          0                 4           4             1   15     1      -0.3026901375E-04       1   15    1      -0.3947814222E-01      0.8162670686E-01      0.1615593602E+01     -0.3026901375E-04

    ------------------------------------------------
       NWT REQUIRED            4 OUTER ITERATIONS 
       AND A TOTAL OF         25 INNER ITERATIONS.
    ------------------------------------------------
                                                   Max.-Head-Change                        Max.-Flux-Residual
  Residual-Control   Outer-Iter.   Inner-Iter.     Column Row Layer    Max.-Head-Change    Column Row Layer    Max.-Flux-Residual            L2-New               L2-Old           Solver-Max-Delh
          0                 1           8             1   15     1       0.7731194406E-01       1   15    1       0.7900627577E+02      0.1845546651E+03      0.8162670686E-01      0.7731194406E-01
          0                 2           7             1   15     1      -0.6540335194E-02       1   15    1      -0.7889921292E+01      0.1835718011E+02      0.1845546651E+03     -0.6540335194E-02
          0                 3           5             1   15     1      -0.3344615275E-03       1   15    1      -0.3907615767E+00      0.9238413988E+00      0.1835718011E+02     -0.3344615275E-03
          0                 4           3             1   15     1      -0.2073263155E-04       1   15    1      -0.2627815155E-01      0.5751099968E-01      0.9238413988E+00     -0.2073263155E-04

    ------------------------------------------------
       NWT REQUIRED            4 OUTER ITERATIONS 
       AND A TOTAL OF         23 INNER ITERATIONS.
    ------------------------------------------------
                                                   Max.-Head-Change                        Max.-Flux-Residual
  Residual-Control   Outer-Iter.   Inner-Iter.     Column Row Layer    Max.-Head-Change    Column Row Layer    Max.-Flux-Residual            L2-New               L2-Old           Solver-Max-Delh
          0                 1           8             1   15     1       0.3888070306E-01       1   15    1       0.4029673027E+02      0.9162935695E+02      0.5751099968E-01      0.3888070306E-01
          0                 2           6             1   15     1      -0.3290217123E-02       1   15    1      -0.4016731014E+01      0.9117849366E+01      0.9162935695E+02     -0.3290217123E-02
          0                 3           4             1   15     1      -0.1715720640E-03       1   15    1      -0.2064804980E+00      0.4610651551E+00      0.9117849366E+01     -0.1715720640E-03
          0                 4           2             6   15     1      -0.1177709118E-04       6   15    1      -0.1332293250E-01      0.2996257377E-01      0.4610651551E+00     -0.1177709118E-04

    ------------------------------------------------
       NWT REQUIRED            4 OUTER ITERATIONS 
       AND A TOTAL OF         20 INNER ITERATIONS.
    ------------------------------------------------
                                                   Max.-Head-Change                        Max.-Flux-Residual
  Residual-Control   Outer-Iter.   Inner-Iter.     Column Row Layer    Max.-Head-Change    Column Row Layer    Max.-Flux-Residual            L2-New               L2-Old           Solver-Max-Delh
          0                 1           7             6   15     1       0.1740556608E-01       6   15    1       0.1778603821E+02      0.4001826107E+02      0.2996257377E-01      0.1740556608E-01
          0                 2           6             6   15     1      -0.1455108096E-02       6   15    1      -0.1799428131E+01      0.3990307348E+01      0.4001826107E+02     -0.1455108096E-02
          0                 3           4             6   15     1      -0.7245978427E-04       1   15    1      -0.8426936460E-01      0.1960840448E+00      0.3990307348E+01     -0.7245978427E-04

    ------------------------------------------------
       NWT REQUIRED            3 OUTER ITERATIONS 
       AND A TOTAL OF         17 INNER ITERATIONS.
    ------------------------------------------------
                                                   Max.-Head-Change                        Max.-Flux-Residual
  Residual-Control   Outer-Iter.   Inner-Iter.     Column Row Layer    Max.-Head-Change    Column Row Layer    Max.-Flux-Residual            L2-New               L2-Old           Solver-Max-Delh
          0                 1           6             6   15     1       0.6965891462E-02       6   15    1       0.7291879087E+01      0.1543625247E+02      0.1960840448E+00      0.6965891462E-02
          0                 2           5             6   15     1      -0.5816744558E-03       6   15    1      -0.7313489811E+00      0.1529343894E+01      0.1543625247E+02     -0.5816744558E-03
          0                 3           3             6   15     1      -0.3478891805E-04       6   15    1      -0.4244388454E-01      0.8674919562E-01      0.1529343894E+01     -0.3478891805E-04

    ------------------------------------------------
       NWT REQUIRED            3 OUTER ITERATIONS 
       AND A TOTAL OF         14 INNER ITERATIONS.
    ------------------------------------------------
                                                   Max.-Head-Change                        Max.-Flux-Residual
  Residual-Control   Outer-Iter.   Inner-Iter.     Column Row Layer    Max.-Head-Change    Column Row Layer    Max.-Flux-Residual            L2-New               L2-Old           Solver-Max-Delh
          0                 1           5             6   15     1       0.2126474182E-02       6   15    1       0.2334105204E+01      0.5200635790E+01      0.8674919562E-01      0.2126474182E-02
          0                 2           4             6   15     1      -0.1846488055E-03       6   15    1      -0.2445851476E+00      0.5215366196E+00      0.5200635790E+01     -0.1846488055E-03
          0                 3           2             6   15     1      -0.9598021294E-05       1   12    1       0.1195361069E-01      0.3080969161E-01      0.5215366196E+00     -0.9598021294E-05

    ------------------------------------------------
       NWT REQUIRED            3 OUTER ITERATIONS 
       AND A TOTAL OF         11 INNER ITERATIONS.
    ------------------------------------------------
                                                   Max.-Head-Change                        Max.-Flux-Residual
  Residual-Control   Outer-Iter.   Inner-Iter.     Column Row Layer    Max.-Head-Change    Column Row Layer    Max.-Flux-Residual            L2-New               L2-Old           Solver-Max-Delh
          0                 1           5             1   11     1      -0.1017748142E-02       1   12    1      -0.8111034617E+00      0.1951274751E+01      0.3080969161E-01     -0.1017748142E-02
          0                 2           4             1   11     1       0.8615529518E-04       1   12    1       0.8100263227E-01      0.1951523242E+00      0.1951274751E+01      0.8615529518E-04

    ------------------------------------------------
       NWT REQUIRED            2 OUTER ITERATIONS 
       AND A TOTAL OF          9 INNER ITERATIONS.
    ------------------------------------------------
                                                   Max.-Head-Change                        Max.-Flux-Residual
  Residual-Control   Outer-Iter.   Inner-Iter.     Column Row Layer    Max.-Head-Change    Column Row Layer    Max.-Flux-Residual            L2-New               L2-Old           Solver-Max-Delh
          0                 1           5             2    1     2      -0.7047875565E-03       1   15    1      -0.4077247838E+00      0.1423362653E+01      0.1951523242E+00     -0.7047875565E-03
          0                 2           4             1    1     1       0.6046040451E-04       3   15    1       0.3958753275E-01      0.1378712489E+00      0.1423362653E+01      0.6046040451E-04

    ------------------------------------------------
       NWT REQUIRED            2 OUTER ITERATIONS 
       AND A TOTAL OF          9 INNER ITERATIONS.
    ------------------------------------------------
                                                   Max.-Head-Change                        Max.-Flux-Residual
  Residual-Control   Outer-Iter.   Inner-Iter.     Column Row Layer    Max.-Head-Change    Column Row Layer    Max.-Flux-Residual            L2-New               L2-Old           Solver-Max-Delh
          0                 1           5             1    1     2      -0.4207340544E-03       1   15    1      -0.3574166670E+00      0.1045271329E+01      0.1378712489E+00     -0.4207340544E-03
          0                 2           4             1    1     2       0.3547659652E-04       1   15    1       0.3597704897E-01      0.1099614422E+00      0.1045271329E+01      0.3547659652E-04

    ------------------------------------------------
       NWT REQUIRED            2 OUTER ITERATIONS 
       AND A TOTAL OF          9 INNER ITERATIONS.
    ------------------------------------------------
                                                   Max.-Head-Change                        Max.-Flux-Residual
  Residual-Control   Outer-Iter.   Inner-Iter.     Column Row Layer    Max.-Head-Change    Column Row Layer    Max.-Flux-Residual            L2-New               L2-Old           Solver-Max-Delh
          0                 1           4             5   15     2      -0.2384845408E-03       1   15    1      -0.2194910708E+00      0.6051894034E+00      0.1099614422E+00     -0.2384845408E-03
          0                 2           3             5   15     2       0.2044462277E-04       1   15    1       0.2276225924E-01      0.5793977715E-01      0.6051894034E+00      0.2044462277E-04

    ------------------------------------------------
       NWT REQUIRED            2 OUTER ITERATIONS 
       AND A TOTAL OF          7 INNER ITERATIONS.
    ------------------------------------------------

 OUTPUT CONTROL FOR STRESS PERIOD     24   TIME STEP     1
    SAVE BUDGET
 UBDSV1 SAVING "         STORAGE" ON UNIT7013 AT TIME STEP    1, STRESS PERIOD  24
 UBDSV2 SAVING "   CONSTANT HEAD" ON UNIT7013 AT TIME STEP    1, STRESS PERIOD  24
 UBDSV1 SAVING "FLOW RIGHT FACE " ON UNIT7013 AT TIME STEP    1, STRESS PERIOD  24
 UBDSV1 SAVING "FLOW FRONT FACE " ON UNIT7013 AT TIME STEP    1, STRESS PERIOD  24
 UBDSV1 SAVING "FLOW LOWER FACE " ON UNIT7013 AT TIME STEP    1, STRESS PERIOD  24
 UBDSV4 SAVING "  STREAM LEAKAGE" ON UNIT7013 AT TIME STEP    1, STRESS PERIOD  24



 
 
 
 
 
 
 
 
 UBDSV3 SAVING "FARM  NET  RECH." ON UNIT7013 AT TIME STEP    1, STRESS PERIOD  24
 UBDSV4 SAVING " GHOST-NODE HEAD" ON UNIT7013 AT TIME STEP    1, STRESS PERIOD  24
1
  FLUX ACROSS PARENT-CHILD INTERFACE AT TIME STEP  1 IN STRESS PERIOD   24
  ------------------------------------------------------------------------
 G-N FLUX        PARENT        CHILD         DIFFERENCE      % DIFFERENCE
  RATE IN:      2.4499E+03    2.4501E+03    -1.9653E-01       -0.0080
 RATE OUT:      3.6818E+03    3.6815E+03     3.0151E-01        0.0082
 
 SOLVING FOR HEAD 
                                                   Max.-Head-Change                        Max.-Flux-Residual
  Residual-Control   Outer-Iter.   Inner-Iter.     Column Row Layer    Max.-Head-Change    Column Row Layer    Max.-Flux-Residual            L2-New               L2-Old           Solver-Max-Delh
          0                 1           9             1    8     1       0.2776760354E+00       1   15    1       0.1329797495E+03      0.4761871600E+03      0.5793977715E-01      0.2776760354E+00
          0                 2           8             1    8     1      -0.2396180906E-01       1   15    1      -0.1324184736E+02      0.4675437459E+02      0.4761871600E+03     -0.2396180906E-01
          0                 3           6             1    8     1      -0.1210488814E-02       1   15    1      -0.6692463712E+00      0.2403395202E+01      0.4675437459E+02     -0.1210488814E-02
          0                 4           4             1    9     1      -0.6125458857E-04       6   14    1      -0.3367411433E-01      0.1232173558E+00      0.2403395202E+01     -0.6125458857E-04

    ------------------------------------------------
       NWT REQUIRED            4 OUTER ITERATIONS 
       AND A TOTAL OF         27 INNER ITERATIONS.
    ------------------------------------------------
                                                   Max.-Head-Change                        Max.-Flux-Residual
  Residual-Control   Outer-Iter.   Inner-Iter.     Column Row Layer    Max.-Head-Change    Column Row Layer    Max.-Flux-Residual            L2-New               L2-Old           Solver-Max-Delh
          0                 1           9             1   11     2       0.9627297580E-01       6    1    1       0.6401682780E+02      0.2079336302E+03      0.1232173558E+00      0.9627297580E-01
          0                 2           7             1   11     2      -0.8284050685E-02       6    1    1      -0.6453129334E+01      0.2092346614E+02      0.2079336302E+03     -0.8284050685E-02
          0                 3           5             1   11     2      -0.4177612667E-03       6    1    1      -0.3185106994E+00      0.1046549905E+01      0.2092346614E+02     -0.4177612667E-03
          0                 4           3             6    1     1      -0.2171043871E-04       6    1    1      -0.2279091079E-01      0.5382284726E-01      0.1046549905E+01     -0.2171043871E-04

    ------------------------------------------------
       NWT REQUIRED            4 OUTER ITERATIONS 
       AND A TOTAL OF         24 INNER ITERATIONS.
    ------------------------------------------------
                                                   Max.-Head-Change                        Max.-Flux-Residual
  Residual-Control   Outer-Iter.   Inner-Iter.     Column Row Layer    Max.-Head-Change    Column Row Layer    Max.-Flux-Residual            L2-New               L2-Old           Solver-Max-Delh
          0                 1           8             1   11     2       0.4794557484E-01       6    1    1       0.3304197422E+02      0.1022793492E+03      0.5382284726E-01      0.4794557484E-01
          0                 2           7             1   11     2      -0.4122070032E-02       6    1    1      -0.3328842987E+01      0.1022985213E+02      0.1022793492E+03     -0.4122070032E-02
          0                 3           4             1   11     2      -0.2071883505E-03       6    1    1      -0.1647449810E+00      0.5118932414E+00      0.1022985213E+02     -0.2071883505E-03
          0                 4           3             1    6     3      -0.1163740628E-04       6    1    1      -0.1049335429E-01      0.3063494477E-01      0.5118932414E+00     -0.1163740628E-04

    ------------------------------------------------
       NWT REQUIRED            4 OUTER ITERATIONS 
       AND A TOTAL OF         22 INNER ITERATIONS.
    ------------------------------------------------
                                                   Max.-Head-Change                        Max.-Flux-Residual
  Residual-Control   Outer-Iter.   Inner-Iter.     Column Row Layer    Max.-Head-Change    Column Row Layer    Max.-Flux-Residual            L2-New               L2-Old           Solver-Max-Delh
          0                 1           8             1    1     2       0.2049867692E-01       6    1    1       0.1499098294E+02      0.4230224427E+02      0.3063494477E-01      0.2049867692E-01
          0                 2           6             1    1     2      -0.1770378594E-02       6    1    1      -0.1503690440E+01      0.4234660674E+01      0.4230224427E+02     -0.1770378594E-02
          0                 3           4             1    1     2      -0.8817008129E-04       6    1    1      -0.7945550547E-01      0.2158280359E+00      0.4234660674E+01     -0.8817008129E-04

    ------------------------------------------------
       NWT REQUIRED            3 OUTER ITERATIONS 
       AND A TOTAL OF         18 INNER ITERATIONS.
    ------------------------------------------------
                                                   Max.-Head-Change                        Max.-Flux-Residual
  Residual-Control   Outer-Iter.   Inner-Iter.     Column Row Layer    Max.-Head-Change    Column Row Layer    Max.-Flux-Residual            L2-New               L2-Old           Solver-Max-Delh
          0                 1           7             6    1     2       0.7458394626E-02       6    1    1       0.5769857975E+01      0.1388614811E+02      0.2158280359E+00      0.7458394626E-02
          0                 2           5             6    1     2      -0.6443262355E-03       6    1    1      -0.5821292709E+00      0.1391196507E+01      0.1388614811E+02     -0.6443262355E-03
          0                 3           3             6    1     1      -0.3462174619E-04       6    1    1      -0.3728859336E-01      0.7613313640E-01      0.1391196507E+01     -0.3462174619E-04

    ------------------------------------------------
       NWT REQUIRED            3 OUTER ITERATIONS 
       AND A TOTAL OF         15 INNER ITERATIONS.
    ------------------------------------------------
                                                   Max.-Head-Change                        Max.-Flux-Residual
  Residual-Control   Outer-Iter.   Inner-Iter.     Column Row Layer    Max.-Head-Change    Column Row Layer    Max.-Flux-Residual            L2-New               L2-Old           Solver-Max-Delh
          0                 1           6             6   15     3       0.2298647371E-02       6    1    1       0.1604701108E+01      0.4066014661E+01      0.7613313640E-01      0.2298647371E-02
          0                 2           4             6   15     3      -0.1981427606E-03       6    1    1      -0.1712084269E+00      0.4096923981E+00      0.4066014661E+01     -0.1981427606E-03
          0                 3           2             6   15     3      -0.9746737980E-05       1   12    1       0.1021038438E-01      0.2780729599E-01      0.4096923981E+00     -0.9746737980E-05

    ------------------------------------------------
       NWT REQUIRED            3 OUTER ITERATIONS 
       AND A TOTAL OF         12 INNER ITERATIONS.
    ------------------------------------------------
                                                   Max.-Head-Change                        Max.-Flux-Residual
  Residual-Control   Outer-Iter.   Inner-Iter.     Column Row Layer    Max.-Head-Change    Column Row Layer    Max.-Flux-Residual            L2-New               L2-Old           Solver-Max-Delh
          0                 1           5             1   11     1      -0.1633572449E-02       1   12    1      -0.1243336623E+01      0.2603321795E+01      0.2780729599E-01     -0.1633572449E-02
          0                 2           4             1   11     2       0.1402367082E-03       1   12    1       0.1254074274E+00      0.2590525647E+00      0.2603321795E+01      0.1402367082E-03
          0                 3           2             1    1     1       0.6979538221E-05       1   10    1       0.1053145574E-01      0.1953630972E-01      0.2590525647E+00      0.6979538221E-05

    ------------------------------------------------
       NWT REQUIRED            3 OUTER ITERATIONS 
       AND A TOTAL OF         11 INNER ITERATIONS.
    ------------------------------------------------
                                                   Max.-Head-Change                        Max.-Flux-Residual
  Residual-Control   Outer-Iter.   Inner-Iter.     Column Row Layer    Max.-Head-Change    Column Row Layer    Max.-Flux-Residual            L2-New               L2-Old           Solver-Max-Delh
          0                 1           5             1    1     2      -0.1017602674E-02       1   10    1      -0.6459325895E+00      0.2005789970E+01      0.1953630972E-01     -0.1017602674E-02
          0                 2           4             1    1     2       0.8650367711E-04       1   10    1       0.6677468680E-01      0.1986609515E+00      0.2005789970E+01      0.8650367711E-04

    ------------------------------------------------
       NWT REQUIRED            2 OUTER ITERATIONS 
       AND A TOTAL OF          9 INNER ITERATIONS.
    ------------------------------------------------
                                                   Max.-Head-Change                        Max.-Flux-Residual
  Residual-Control   Outer-Iter.   Inner-Iter.     Column Row Layer    Max.-Head-Change    Column Row Layer    Max.-Flux-Residual            L2-New               L2-Old           Solver-Max-Delh
          0                 1           5             1    1     2      -0.7405387514E-03       6    1    1      -0.3559172642E+00      0.1292105952E+01      0.1986609515E+00     -0.7405387514E-03
          0                 2           4             1    1     2       0.6287168936E-04       6    1    1       0.3595513478E-01      0.1315855626E+00      0.1292105952E+01      0.6287168936E-04

    ------------------------------------------------
       NWT REQUIRED            2 OUTER ITERATIONS 
       AND A TOTAL OF          9 INNER ITERATIONS.
    ------------------------------------------------
                                                   Max.-Head-Change                        Max.-Flux-Residual
  Residual-Control   Outer-Iter.   Inner-Iter.     Column Row Layer    Max.-Head-Change    Column Row Layer    Max.-Flux-Residual            L2-New               L2-Old           Solver-Max-Delh
          0                 1           5             2    1     2      -0.4028035298E-03       6    1    1      -0.2439806383E+00      0.7274303996E+00      0.1315855626E+00     -0.4028035298E-03
          0                 2           3             2    1     2       0.3380169009E-04       6    1    1       0.2931454085E-01      0.7582956350E-01      0.7274303996E+00      0.3380169009E-04

    ------------------------------------------------
       NWT REQUIRED            2 OUTER ITERATIONS 
       AND A TOTAL OF          8 INNER ITERATIONS.
    ------------------------------------------------
                                                   Max.-Head-Change                        Max.-Flux-Residual
  Residual-Control   Outer-Iter.   Inner-Iter.     Column Row Layer    Max.-Head-Change    Column Row Layer    Max.-Flux-Residual            L2-New               L2-Old           Solver-Max-Delh
          0                 1           4             1    1     2      -0.2021877734E-03       6    1    1      -0.1492689651E+00      0.3753405187E+00      0.7582956350E-01     -0.2021877734E-03
          0                 2           3             3    1     1       0.1717060019E-04       3    1    1       0.1493646821E-01      0.3711997055E-01      0.3753405187E+00      0.1717060019E-04

    ------------------------------------------------
       NWT REQUIRED            2 OUTER ITERATIONS 
       AND A TOTAL OF          7 INNER ITERATIONS.
    ------------------------------------------------

 OUTPUT CONTROL FOR STRESS PERIOD     24   TIME STEP     2
    PRINT BUDGET
    SAVE HEAD FOR ALL LAYERS
    SAVE BUDGET
 UBDSV1 SAVING "         STORAGE" ON UNIT7013 AT TIME STEP    2, STRESS PERIOD  24
 UBDSV2 SAVING "   CONSTANT HEAD" ON UNIT7013 AT TIME STEP    2, STRESS PERIOD  24
 UBDSV1 SAVING "FLOW RIGHT FACE " ON UNIT7013 AT TIME STEP    2, STRESS PERIOD  24
 UBDSV1 SAVING "FLOW FRONT FACE " ON UNIT7013 AT TIME STEP    2, STRESS PERIOD  24
 UBDSV1 SAVING "FLOW LOWER FACE " ON UNIT7013 AT TIME STEP    2, STRESS PERIOD  24
 UBDSV4 SAVING "  STREAM LEAKAGE" ON UNIT7013 AT TIME STEP    2, STRESS PERIOD  24



 
 
 
 
 
 
 
 
 UBDSV3 SAVING "FARM  NET  RECH." ON UNIT7013 AT TIME STEP    2, STRESS PERIOD  24
 UBDSV4 SAVING " GHOST-NODE HEAD" ON UNIT7013 AT TIME STEP    2, STRESS PERIOD  24

 HEAD WILL BE SAVED ON UNIT 2213 AT END OF TIME STEP     2, STRESS PERIOD     24
1
  VOLUMETRIC BUDGET FOR ENTIRE MODEL AT END OF TIME STEP    2 IN STRESS PERIOD     24
  ------------------------------------------------------------------------------

     CUMULATIVE VOLUMES      L**3       RATES FOR THIS TIME STEP      L**3/T
     ------------------                 ------------------------

           IN:                                      IN:
           ---                                      ---
             STORAGE =      209994.9375               STORAGE =           0.0000
       CONSTANT HEAD =           0.0000         CONSTANT HEAD =           0.0000
      STREAM LEAKAGE =      626502.8125        STREAM LEAKAGE =        1563.5706
          FARM WELLS =           0.0000            FARM WELLS =           0.0000
    FARM  NET  RECH. =      368230.1562      FARM  NET  RECH. =         781.5877
     GHOST-NODE HEAD =     4987149.0000       GHOST-NODE HEAD =        2573.2656

            TOTAL IN =     6191877.0000              TOTAL IN =        4918.4238

          OUT:                                     OUT:
          ----                                     ----
             STORAGE =     4141820.2500               STORAGE =        1113.1462
       CONSTANT HEAD =           0.0000         CONSTANT HEAD =           0.0000
      STREAM LEAKAGE =           0.0000        STREAM LEAKAGE =           0.0000
          FARM WELLS =       78522.2266            FARM WELLS =           0.0000
    FARM  NET  RECH. =           0.0000      FARM  NET  RECH. =           0.0000
     GHOST-NODE HEAD =     1971529.7500       GHOST-NODE HEAD =        3805.2737

           TOTAL OUT =     6191872.0000             TOTAL OUT =        4918.4199

            IN - OUT =           5.0000              IN - OUT =       3.9062E-03

 PERCENT DISCREPANCY =           0.00     PERCENT DISCREPANCY =           0.00






          TIME SUMMARY AT END OF TIME STEP     2 IN STRESS PERIOD     24
                    SECONDS     MINUTES      HOURS       DAYS        YEARS
                    -----------------------------------------------------------
   TIME STEP LENGTH 1.31414E+06  21902.      365.04      15.210     4.16427E-02
 STRESS PERIOD TIME 2.62829E+06  43805.      730.08      30.420     8.32854E-02
         TOTAL TIME 6.30789E+07 1.05132E+06  17522.      730.08      1.9989    
1
1
  FLUX ACROSS PARENT-CHILD INTERFACE AT TIME STEP  2 IN STRESS PERIOD   24
  ------------------------------------------------------------------------
 G-N FLUX        PARENT        CHILD         DIFFERENCE      % DIFFERENCE
  RATE IN:      2.5734E+03    2.5733E+03     1.4282E-01        0.0056
 RATE OUT:      3.8050E+03    3.8053E+03    -2.4585E-01       -0.0065

 Run end date and time (yyyy/mm/dd hh:mm:ss): 1998/06/15  3:37:11
 Elapsed run time: 10.499 Seconds

