
                       OWHM 1.0
    U.S. GEOLOGICAL SURVEY MODULAR FINITE-DIFFERENCE 
         ONE-WATER HYDROLOGIC-FLOW MODEL [OWHM]
              Version 1.0.0   11/05/2014

 INCLUDES:
          MODFLOW-2005 Version 1.11.0  08/08/2013
          FMP          Version 3.0.0   08/01/2014
          SWR          Version 1.03.0  09/24/2013
          SWI          Version 2.0.0   07/22/2013
          LGR          Version 2.0.0   09/19/2013
          NWT          Version 1.0.9   07/01/2014


 LIST FILE: ../../test-out-owhm-lgr/fmp-lgr-nwt/OWHM_EX2_child.lst
                         UNIT  711

 OPENING OWHM_EX2_child.upw
 FILE TYPE:UPW   UNIT  911   STATUS:OLD    
 FORMAT:FORMATTED              ACCESS:SEQUENTIAL          

 OPENING OWHM_EX2_child.ba6
 FILE TYPE:BAS6   UNIT 1011   STATUS:OLD    
 FORMAT:FORMATTED              ACCESS:SEQUENTIAL          

 OPENING OWHM_EX2_child.dis
 FILE TYPE:DIS   UNIT 1111   STATUS:OLD    
 FORMAT:FORMATTED              ACCESS:SEQUENTIAL          

 OPENING OWHM_EX2_child.fmp
 FILE TYPE:FMP   UNIT 1211   STATUS:OLD    
 FORMAT:FORMATTED              ACCESS:SEQUENTIAL          
#sfr           1411 OWHM_EX2_child.sfr --> can't leave this in there if no segments - will be turned off !                                                                                                                                                                                                                                                                                                                                                                                                                                                                                                                                                                                                                  

 OPENING OWHM_EX2_child.oc
 FILE TYPE:OC   UNIT 1911   STATUS:OLD    
 FORMAT:FORMATTED              ACCESS:SEQUENTIAL          
# Solvers                                                                                                                                                                                                                                                                                                                                                                                                                                                                                                                                                                                                                                                                                                                   

 OPENING OWHM_EX2.nwt
 FILE TYPE:NWT   UNIT 1811   STATUS:OLD    
 FORMAT:FORMATTED              ACCESS:SEQUENTIAL          
#                                                                                                                                                                                                                                                                                                                                                                                                                                                                                                                                                                                                                                                                                                                           

 OPENING ../../test-out-owhm-lgr/fmp-lgr-nwt/OWHM_EX2_child.hed
 FILE TYPE:DATA   UNIT 2211   STATUS:UNKNOWN
 FORMAT:FORMATTED              ACCESS:SEQUENTIAL          
#FMP Datafiles                                                                                                                                                                                                                                                                                                                                                                                                                                                                                                                                                                                                                                                                                                              

 OPENING ./DATA_FMP/OFE_Child.in
 FILE TYPE:DATA   UNIT 2011   STATUS:OLD    
 FORMAT:FORMATTED              ACCESS:SEQUENTIAL          

 OPENING ./DATA_FMP/ROOT_Child.in
 FILE TYPE:DATA   UNIT 3011   STATUS:OLD    
 FORMAT:FORMATTED              ACCESS:SEQUENTIAL          

 OPENING ./DATA_FMP/KC_Child.in
 FILE TYPE:DATA   UNIT 4011   STATUS:OLD    
 FORMAT:FORMATTED              ACCESS:SEQUENTIAL          

 OPENING ./DATA_FMP/FTE_Child.in
 FILE TYPE:DATA   UNIT 5011   STATUS:OLD    
 FORMAT:FORMATTED              ACCESS:SEQUENTIAL          

 OPENING ./DATA_FMP/INEFFSW_Child.in
 FILE TYPE:DATA   UNIT 6011   STATUS:OLD    
 FORMAT:FORMATTED              ACCESS:SEQUENTIAL          

 OPENING ./DATA_FMP/NRDFAC_Child.in
 FILE TYPE:DATA   UNIT 8011   STATUS:OLD    
 FORMAT:FORMATTED              ACCESS:SEQUENTIAL          
#                                                                                                                                                                                                                                                                                                                                                                                                                                                                                                                                                                                                                                                                                                                           

 OPENING ../../test-out-owhm-lgr/fmp-lgr-nwt/CBC_child.OUT
 FILE TYPE:DATA(BINARY)   UNIT 7011   STATUS:UNKNOWN
 FORMAT:UNFORMATTED            ACCESS:STREAM              

 OPENING ../../test-out-owhm-lgr/fmp-lgr-nwt/OWHM_EX2_child_bfh.hed
 FILE TYPE:DATA   UNIT 5911   STATUS:UNKNOWN
 FORMAT:FORMATTED              ACCESS:SEQUENTIAL          

 OPENING ../../test-out-owhm-lgr/fmp-lgr-nwt/OWHM_EX2_child_bfh.flw
 FILE TYPE:DATA   UNIT 6911   STATUS:UNKNOWN
 FORMAT:FORMATTED              ACCESS:SEQUENTIAL          

 BAS -- BASIC PACKAGE, VERSION 7, 5/2/2005 INPUT READ FROM UNIT 1011
 
 MODFLOW was compiled using mixed precision
 Precision of REAL variables:           6
 Precision of DOUBLE PRECISION variables:          15

 DISCRETIZATION INPUT DATA READ FROM UNIT 1111
 # generic model 1 transient discretization file

*** DIS COORDINATE SYSTEM NOT SEPECIFIED ***
DEFAULT VALUES APPLIED ARE 0° ROTATION
WITH THE ORIGIN (0,0) LOCATED AT THE MODEL'S LOWER LEFT CORNER


    4 LAYERS         9 ROWS         9 COLUMNS
     24 STRESS PERIOD(S) IN SIMULATION
 MODEL TIME UNIT IS DAYS
 MODEL LENGTH UNIT IS METERS
  Confining bed flag for each layer:
   1   1   1   0

                     DELR =   166.667    

                     DELC =   166.667    

 OPENING FILE ON UNIT   99:
 ./DATA_FMP/GSE_child.in                                                                                                                                                                                                                                                                                                                                                                                                                                                                                                                                                                                                                                                                                                     



           TOP ELEVATION OF LAYER 1
 READING ON UNIT   99 WITH FORMAT: (FREE)              

   MODEL LAYER BOTTOM EL. =   205.000     FOR LAYER   1

 BOT. EL. OF QUASI-3D BED =   200.000     FOR LAYER   1

   MODEL LAYER BOTTOM EL. =   140.000     FOR LAYER   2

 BOT. EL. OF QUASI-3D BED =   125.000     FOR LAYER   2

   MODEL LAYER BOTTOM EL. =   65.0000     FOR LAYER   3

 BOT. EL. OF QUASI-3D BED =   60.0000     FOR LAYER   3

   MODEL LAYER BOTTOM EL. =   0.00000     FOR LAYER   4


 STRESS PERIOD     LENGTH       TIME STEPS     MULTIPLIER FOR DELT    SS FLAG
 ----------------------------------------------------------------------------
        1         30.42000          2                    1.000         TR
        2         30.42000          2                    1.000         TR
        3         30.42000          2                    1.000         TR
        4         30.42000          2                    1.000         TR
        5         30.42000          2                    1.000         TR
        6         30.42000          2                    1.000         TR
        7         30.42000          2                    1.000         TR
        8         30.42000          2                    1.000         TR
        9         30.42000          2                    1.000         TR
       10         30.42000          2                    1.000         TR
       11         30.42000          2                    1.000         TR
       12         30.42000          2                    1.000         TR
       13         30.42000          2                    1.000         TR
       14         30.42000          2                    1.000         TR
       15         30.42000          2                    1.000         TR
       16         30.42000          2                    1.000         TR
       17         30.42000          2                    1.000         TR
       18         30.42000          2                    1.000         TR
       19         30.42000          2                    1.000         TR
       20         30.42000          2                    1.000         TR
       21         30.42000          2                    1.000         TR
       22         30.42000          2                    1.000         TR
       23         30.42000          2                    1.000         TR
       24         30.42000          2                    1.000         TR

 TRANSIENT SIMULATION



 
 # generic model 1                                                               
 THE FREE FORMAT OPTION HAS BEEN SELECTED

 THE MAX STORAGE FOR PROPERTIES DEFINED BY PARAMETERS IS: 
 MAX STORAGE OF PARAMETERS (MXPAR)  IS       2000
 MAX STORAGE OF INSTANCES  (MXINST) IS      50000
 MAX STORAGE OF CLUSTERS   (MXCLST) IS    2000000

 CALCULATE FLOW BETWEEN ADJACENT CONSTANT-HEAD CELLS

 OPENING FILE ON UNIT   99:
 OWHM_EX2_child.ib                                                                                                                                                                                                                                                                                                                                                                                                                                                                                                                                                                                                                                                                                                           



                     BOUNDARY ARRAY FOR LAYER   1
 READING ON UNIT   99 WITH FORMAT: (FREE)              

 OPENING FILE ON UNIT   99:
 OWHM_EX2_child.ib                                                                                                                                                                                                                                                                                                                                                                                                                                                                                                                                                                                                                                                                                                           



                     BOUNDARY ARRAY FOR LAYER   2
 READING ON UNIT   99 WITH FORMAT: (FREE)              

 OPENING FILE ON UNIT   99:
 OWHM_EX2_child.ib                                                                                                                                                                                                                                                                                                                                                                                                                                                                                                                                                                                                                                                                                                           



                     BOUNDARY ARRAY FOR LAYER   3
 READING ON UNIT   99 WITH FORMAT: (FREE)              

 OPENING FILE ON UNIT   99:
 OWHM_EX2_child.ib                                                                                                                                                                                                                                                                                                                                                                                                                                                                                                                                                                                                                                                                                                           



                     BOUNDARY ARRAY FOR LAYER   4
 READING ON UNIT   99 WITH FORMAT: (FREE)              

CHECKING FOR VALID MODEL DIMENIONS FOR DELR, DELC, AND THICKNESS


 AQUIFER HEAD WILL BE SET TO  -333.00     AT ALL NO-FLOW NODES (IBOUND=0).

             INITIAL HEAD =   0.00000     FOR LAYER   1

             INITIAL HEAD =   0.00000     FOR LAYER   2

             INITIAL HEAD =   0.00000     FOR LAYER   3

             INITIAL HEAD =   0.00000     FOR LAYER   4

 OUTPUT CONTROL IS SPECIFIED ONLY AT TIME STEPS FOR WHICH OUTPUT IS DESIRED
 HEADS WILL BE SAVED WITH FORMAT: (100F8.2)           
 SAVED HEADS WILL BE LABELED
 COMPACT CELL-BY-CELL BUDGET FILES WILL BE WRITTEN
 HEAD PRINT FORMAT CODE IS  -3    DRAWDOWN PRINT FORMAT CODE IS   0
 HEADS WILL BE SAVED ON UNIT 2211    DRAWDOWNS WILL BE SAVED ON UNIT    0  WATER BUDGETs WILL BE SAVED ON UNIT 

 LGR2 -- LOCAL GRID REFINEMENT, VERSION 2.0, 06/25/2013
        INPUT READ FOR MODEL  2 DEFINED BY NAME FILE OWHM_EX2_child.nam

 LOCAL GRID REFINEMENT IS ACTIVE FOR CHILD ONLY
               STARTING HEADS FROM PARENT WILL BE USED: ISHFLG =   1
               VALUE IN IBOUND INDICATING BOUNDARY INTERFACE = 4911
               BOUNDARY HEADS WILL BE SAVED ON UNIT  5911
               BOUNDARY FLUXES WILL BE SAVED ON UNIT  6911
               MAX NUMBER OF LGR ITERATIONS = 30
               LGR ITERATION RESULTS WRITTEN TO SCREEN: IOUTLGR =  -1

               WEIGHTING FACTORS FOR RELAXATION
               RELAXH(HEAD) RELAXF(FLUX)
               -------------------------
               0.500E+00      0.500E+00

               CLOSURE CRITERIA FOR LGR ITERATIONS
               HCLOSELGR       FCLOSELGR
               -------------------------
               5.000E-04      1.000E+00

               STARTING LAYER, ROW, COLUMN=   1,   6,   7
               ENDING LAYER, ROW, COLUMN=     4,   8,   9
               NCPP: NUMBER OF CHILD CELLS PER WIDTH OF PARENT CELL= 3
               NCPPL: NUMBER OF CHILD LAYERS IN LAYER  1 OF PARENT = 1
               NCPPL: NUMBER OF CHILD LAYERS IN LAYER  2 OF PARENT = 1
               NCPPL: NUMBER OF CHILD LAYERS IN LAYER  3 OF PARENT = 1
               NCPPL: NUMBER OF CHILD LAYERS IN LAYER  4 OF PARENT = 1
 # NWT: Newton Solver file created on 3/20/2013 by ModelMuse version 2.18.1.0.

 NWT1 -- Newton Solver, VERSION 1.0.9, 07/01/2014
         INPUT READ FROM UNIT 1811

 COMPLEX OPTION:
 DEFAULT SOLVER INPUT VALUES REFLECT STRONGLY NONLINEAR MODEL
 ***GMRES linear solver will be used***
 
   CONVERGENCE CRITERION OF   0.100000E-03 FOR HEAD SOLUTION
   AND A TOLERANCE OF   0.500000E+03 FOR FLOW SOLUTION AND 
   A MAXIMUM OF   100 OUTER ITERATIONS. 


   D-B-D REDUCTION FACTOR OF    0.850000E+00 AND 
   A D-B-D INCREASE FACTOR OF    0.100000E-04 AND 
   A D-B-D RELAXATION OF    0.000000E+00 AND 
   A MOMENTUM FACTOR OF    0.100000E+00 .


   BACKTRACKING IS ACTIVE 
   THE MAXIMUM NUMBER OF BACKTRACKS IS    50 AND 
   THE BACKTRACKING TOLERANCE IS    0.110000E+01 AND
   THE BACKTRACKING REDUCTION FACTOR IS    0.700000E+00

 GMRES -- LINEAR SOLUTION BY GMRES PACKAGE 
     UNIT:  1811
     adapted for HYDROTHERM by Kipp and others (2008)
     using software originally developed by Saad (1990)
     using algorithms described in Saad (2003)

 UPW1 -- UPSTREAM WEIGHTING FLOW PACKAGE, VERSION 1.0.6, 12/05/2012
         INPUT READ FROM UNIT911

 CELL-BY-CELL FLOWS WILL BE SAVED ON UNIT 7011
 No named parameters

   LAYER FLAGS:
 LAYER       LAYTYP          LAYAVG    CHANI           LAYVKA           LAYWET
 ---------------------------------------------------------------------------
    1             1             0     1.000E+00             1             0
    2             0             0     1.000E+00             1             0
    3             0             0     1.000E+00             1             0
    4             0             0     1.000E+00             1             0

   INTERPRETATION OF LAYER FLAGS:
                        INTERBLOCK     HORIZONTAL    DATA IN
         LAYER TYPE   TRANSMISSIVITY   ANISOTROPY   ARRAY VKA   WETTABILITY
 LAYER   (LAYTYP)        (LAYAVG)      (CHANI)     (LAYVKA)       (LAYWET)
 ---------------------------------------------------------------------------
    1   CONVERTIBLE      HARMONIC     1.000E+00    ANISOTROPY  NON-WETTABLE
    2      CONFINED      HARMONIC     1.000E+00    ANISOTROPY  NON-WETTABLE
    3      CONFINED      HARMONIC     1.000E+00    ANISOTROPY  NON-WETTABLE
    4      CONFINED      HARMONIC     1.000E+00    ANISOTROPY  NON-WETTABLE

    HYD. COND. ALONG ROWS =   10.0000     FOR LAYER   1

  HORIZ. TO VERTICAL ANI. =   1.00000     FOR LAYER   1

         SPECIFIC STORAGE =  1.000000E-05 FOR LAYER   1

           SPECIFIC YIELD =  2.000000E-02 FOR LAYER   1

 QUASI3D VERT. HYD. COND. =  2.000000E-03 FOR LAYER   1

    HYD. COND. ALONG ROWS =   1.50000     FOR LAYER   2

  HORIZ. TO VERTICAL ANI. =   1.00000     FOR LAYER   2

         SPECIFIC STORAGE =  1.000000E-05 FOR LAYER   2

 QUASI3D VERT. HYD. COND. =  1.000000E-03 FOR LAYER   2

    HYD. COND. ALONG ROWS =   1.00000     FOR LAYER   3

  HORIZ. TO VERTICAL ANI. =   1.00000     FOR LAYER   3

         SPECIFIC STORAGE =  1.000000E-05 FOR LAYER   3

 QUASI3D VERT. HYD. COND. =  5.000000E-04 FOR LAYER   3

    HYD. COND. ALONG ROWS =  0.150000     FOR LAYER   4

  HORIZ. TO VERTICAL ANI. =   1.00000     FOR LAYER   4

         SPECIFIC STORAGE =  1.000000E-05 FOR LAYER   4


 FMP3 -- FARM PROCESS, VERSION 3.0, 06/15/1998 03:37:00
 INPUT READ FROM UNIT
 # FMP2 Example Model -- ZERO SCENARIO / EQUAL APPROPRATION
               2 Named Parameters     
               1 Child Model Well List entries
              15 Parent Model Well List entries used at Maximum for Child Model Wells

 DIMENSIONS:
   MAXIMUM OF     32 FARM WELLS
   MAXIMUM OF        8 FARMS
   TOTAL OF        3 SOIL-TYPES
   TOTAL OF        6 CROP-TYPES

 WHEN TO READ SETTINGS:
   ROOT ZONE DEPTHS ............................  SPECIFIED FOR EACH STRESS PERIOD
                                                  IN PARENT MODEL AND USED IN CHILD MODEL WHERE NEEDED

   CROP COEFFICIENTS ...........................  AND
   REFERENCE EVAPOTRANSPIRATION FLUX ...........  SPECIFIED FOR EACH STRESS PERIOD
                                                  IN PARENT MODEL AND USED IN CHILD MODEL WHERE NEEDED

   PRECIPITATION FLUX ..........................  SPECIFIED FOR EACH STRESS PERIOD
                                                  IN PARENT MODEL AND USED IN CHILD MODEL WHERE NEEDED

   FRACTIONS OF TRANS. & EVAP. OF CONSUMPTIVE USE SPECIFIED FOR EACH STRESS PERIOD
                                                  IN PARENT MODEL AND USED IN CHILD MODEL WHERE NEEDED

   FRACTIONS OF IN-EFFICIENT LOSSES TO SW-RUNOFF  SPECIFIED FOR EACH STRESS PERIOD
                                                  IN PARENT MODEL AND USED IN CHILD MODEL WHERE NEEDED

   ON-FARM EFFICIENCIES ........................  SPECIFIED FOR EACH STRESS PERIOD
                                                  IN PARENT MODEL AND USED IN CHILD MODEL WHERE NEEDED

   WATER-BALANCE SUBREGIONS (FARMS).............  SPECIFIED FOR THE ENTIRE SIMULATION

 WATER POLICY SETTINGS:
   EFFICIENCY BEHAVIOR: CONSERVATIVE BEHAVIOR: CONSTANT EFFICIENCY OVER A TIME STEP
                        EFFICIENCY DOES NOT VARY WITH CHANGING GROUNDWATER LEVEL, BUT
                        DELIVERY MAY VARY WITH CHANGING GROUNDWATER LEVEL
                        EFF. RESET TO SPEC. EFF. AT BEG. OF EACH TIME STEP
   NO DEFICIENCY SCENARIO APPLIED (ZERO SCENARIO)
     ASSUMPTION FOR DEFICIENCY CASE: SUPPLY = DEMAND, I.E.
     SUPPLY SUFFICIENTLY SUPPLEMENTED FROM OUTSIDE MODELING DOMAIN
   NO NON-IRRIGATION-SEASON HAS BEEN SELECTED
   NO GROUNDWATER ALLOTMENTS (Volumetric Rate) HAVE BEEN SELECTED -- Maximum Groundwater Delivery limited by Total Capacity of all Farm wells per Farm per Stress Period

 SURFACE-WATER SETTINGS (SUPPLY / RETURNFLOW / RIGHTS:
   FARM DELIVERY REQUIREMENT SUPPLIED BY:
     NON-ROUTED SURFACE-WATER DELIVERIES (FIRST PRIORITY).
     MAXIMUM NUMBER OF NON-ROUTED DELIVERY TYPES =    1
   NO ROUTED SURFACE-WATER DELIVERY EXISTS
     TO ALL REACHES OF ANY STREAM SEGMENT LOCATED WITHIN EACH FARM

 PRINT SETTINGS:
   FARM WELL FLOW RATES:
     A LIST (FARM-WELL ID, FARM ID, LAY, ROW, COL, RATE) IS SAVED 
     ON ASCII FILE "FWELLS.OUT" FOR ALL TIME STEPS
   FARM NET RECHARGE FLOW RATES:
     A 2D INTEGER-ARRAY OF EACH CELLS UPPERMOST ACTIVE LAYER, AND
     A 2D REAL-ARRAY OF EACH CELLS NET RECHARGE RATE 
     WILL BE SAVED AS BINARY FILE ON UNIT 7011 FOR TIME STEPS, FOR WHICH IN OUTPUT CONTOL
     "SAVE BUDGET" IS SPECIFIED (USING WORDS), OR ICBCFL IS NOT 0 (USING NUMERIC CODES)
   FARM DEMAND & SUPPLY FLOW RATES:
     A LIST OF INITIAL DEMAND & SUPPLY FLOW RATES, AND OF
     FINAL DEMAND AND SUPPLY FLOW RATES AFTER THE APPLICATION OF A DEFICIENCY SCENARIO
     WILL BE SAVED ON ASCII-FILE "FDS.OUT" FOR ALL TIME STEPS.  LIST =
     (PER,TSTP,TIME,FID,OFE,
      TFDR-INI,NR-SWD-INI,R-SWD-INI,QREQ,TFDR-FIN,NR-SWD-FIN,R-SWD-FIN,QREQ,Q,DEF-FLAG)
     (<-- BEFORE DEFICIENCY SCENARIO --> <--       AFTER DEFICIENCY SCENARIO       -->)
   DETAILED FARM BUDGET:
     A LIST OF VOLUMETRIC FLOW RATES FOR ANY TIME STEP [L^3/T], AND OF CUMULATIVE VOLUMES [L^3] 
     WILL BE SAVED ON ASCII-FILE "FB_DETAILS.OUT" FOR ALL TIME STEPS.
      LIST = (PER,TSTP,TIME,FID;
      RATES INTO FARM: Q-p-in, Q-nrd-in, Q-srd-in, Q-rd-in, Q-wells-in, Q-egw-in, Q-tgw-in, Q-ext-in, Q-tot-in,
      RATES OUT OF FARM: Q-ei-out, Q-ep-out, Q-egw-out, Q-ti-out, Q-tp-out, Q-tgw-out Q-run-out, Q-dp-out, Q-nrd-out, Q-srd-out, Q-rd-out, Q-wells-out, Q-tot-out,
      RATE BUDGET ERROR: Q-in-minus-out, Q-Discrepancy [%];
      CUMULATIVE VOLUMES INTO FARM: V-p-in, V-nrd-in, V-srd-in, V-rd-in, V-wells-in, V-egw-in, V-tgw-in, V-ext-in, V-tot-in,
      CUMULATIVE VOLUMES OUT OF FARM: V-ei-out, V-ep-out, V-egw-out, V-ti-out, V-tp-out, V-tgw-out V-run-out, V-dp-out, V-nrd-out, V-srd-out, V-rd-out, V-wells-out, V-tot-out,
      VOLUMETRIC BUDGET ERROR: Q-in-minus-out, Q-Discrepancy [%])
   ROUTING INFOMATION:
     WRITTEN TO ASCII FILE "ROUT.OUT" FOR FIRST STRESS PERIOD ONLY
 
 AUXILIARY FARM WELL PARAMETER: QMAXRESET       
 AUXILIARY FARM WELL PARAMETER: LGRGRID         


     2 Farm Well parameters

 PARAMETER NAME:WELLSC       TYPE:QMAX
 Parameter value from package file is:    1000.0    
   NUMBER OF ENTRIES:      1

 OPENING FILE ON UNIT   99:
 ./DATA_FMP/WELLS_child.in                                                                                                                                                                                                                                                                                                                                                                                                                                                                                                                                                                                                                                                                                                   
  PHIRAMP WILL BE SET TO A DEFAULT VALUE OF 0.05
  WELLS WITH REDUCED PUMPING WILL BE REPORTED TO THE MAIN LISTING FILE

 WELL NO. LAYER    ROW    COL  F-WELL ID    FARM ID      QMAXfac         QMAXRESET       LGRGRID         
 --------------------------------------------------------------------------------------------------------
       1      1      2      8          2          2      2.0000E+00              0              0

 PARAMETER NAME:WELLS1       TYPE:QMAX
 Parameter value from package file is:    1000.0    
   NUMBER OF ENTRIES:      0
 
 WELL NO. LAYER    ROW    COL  F-WELL ID    FARM ID      QMAXfac         QMAXRESET       LGRGRID         
 --------------------------------------------------------------------------------------------------------
       2      1      8      2          2          1      5.0000E+00     0    0
       3      1      8      8          3          1      5.0000E+00     0    0
1
                            STRESS PERIOD NO.      1, LENGTH =   30.42000    
                            -----------------------------------------------

                              NUMBER OF TIME STEPS =     2

                               MULTIPLIER FOR DELT =     1.000

                            INITIAL TIME STEP SIZE =   15.21000    

PARAMETERS HAVE BEEN USED IN PACKAGES
THE CURRENT STORAGE FOR PARAMETERS IS: 
# PARAMETER=         2 WITH MAX STORAGE (MXPAR)  OF      2000
# INSTANCES=         0 WITH MAX STORAGE (MXINST) OF     50000
# CLUSTERS =         0 WITH MAX STORAGE (MXCLST) OF   2000000
YOU CAN INCREASE/DECREASE STORAGE WITH BAS OPTION:
MAXPARAM  MXPAR  MXCLST MXINST

 OPENING FILE ON UNIT   99:
 ./DATA_FMP/WELLS_child.in                                                                                                                                                                                                                                                                                                                                                                                                                                                                                                                                                                                                                                                                                                   
  PHIRAMP WILL BE SET TO A DEFAULT VALUE OF 0.05
  WELLS WITH REDUCED PUMPING WILL BE REPORTED TO THE MAIN LISTING FILE

 WELL NO. LAYER    ROW    COL  F-WELL ID    FARM ID         QMAX         QMAXRESET       LGRGRID         
 --------------------------------------------------------------------------------------------------------
       1      1      2      8          2          2      2.0000E+00              0              0
       2      1      8      2          2          1      5.0000E+00     0    0
       3      1      8      8          3          1      5.0000E+00     0    0

 Parameter:  WELLSC
 WELL NO. LAYER    ROW    COL  F-WELL ID    FARM ID         QMAX         QMAXRESET       LGRGRID         
 --------------------------------------------------------------------------------------------------------
       4      1      2      8          2          2      2.0000E+03              0              0

 Parameter:  WELLS1
 WELL NO. LAYER    ROW    COL  F-WELL ID    FARM ID         QMAX         QMAXRESET       LGRGRID         
 --------------------------------------------------------------------------------------------------------
       5      1      8      2          2          1      5.0000E+03              0              0
       6      1      8      8          3          1      5.0000E+03              0              0

 NUMBER OF ACTIVE FARM WELLS:        6

 FARM-ID  NUMBER OF WELLS PER FARM  TOTAL MAX.CAPACITY PER FARM
       1                         4                   10010.0000
       2                         2                    2002.0000
       3                         0                       0.0000
       4                         0                       0.0000
       5                         0                       0.0000
       6                         0                       0.0000
       7                         0                       0.0000
       8                         0                       0.0000

Transpiratory and Evaporative Fractions of Crop Consumptive Use
    % Transpiration % Evap. for Precip. % Evap. for Irrig.
    2          0.822          0.178          0.158
    3          0.957          0.043          0.043

FRACTIONS OF IN-EFFICIENT LOSSES TO SW-RUNOFF FROM 
     PRECIPITATION:  IRRIGATION:
    2          0.400          0.300
    3          0.600          0.500
 
 SOLVING FOR HEAD 
                                                   Max.-Head-Change                        Max.-Flux-Residual
  Residual-Control   Outer-Iter.   Inner-Iter.     Column Row Layer    Max.-Head-Change    Column Row Layer    Max.-Flux-Residual            L2-New               L2-Old           Solver-Max-Delh
          0                 1          11             9    5     1      -0.3387372749E+02       6    9    1      -0.3841554876E+04      0.2753697781E+05      0.0000000000E+00     -0.3387372749E+02
          0                 2          10             9    5     1      -0.3970915909E+01       7    9    1       0.1027058487E+04      0.4502448077E+04      0.2753697781E+05     -0.3970915909E+01
          0                 3           8             9    5     1       0.2936598419E+00       5    2    1      -0.9653364264E+02      0.3780403883E+03      0.4502448077E+04      0.2936598419E+00
          0                 4           7             9    5     1       0.1676750175E-01       5    9    1       0.5172244213E+01      0.2436014257E+02      0.3780403883E+03      0.1676750175E-01
          0                 5           5             9    5     1       0.1109223578E-02       5    9    1       0.4702589523E+00      0.1937639199E+01      0.2436014257E+02      0.1109223578E-02
          0                 6           4             9    6     1       0.8275042366E-04       5    1    1       0.4422636592E-01      0.1789620138E+00      0.1937639199E+01      0.8275042366E-04

    ------------------------------------------------
       NWT REQUIRED            6 OUTER ITERATIONS 
       AND A TOTAL OF         45 INNER ITERATIONS.
    ------------------------------------------------
                                                   Max.-Head-Change                        Max.-Flux-Residual
  Residual-Control   Outer-Iter.   Inner-Iter.     Column Row Layer    Max.-Head-Change    Column Row Layer    Max.-Flux-Residual            L2-New               L2-Old           Solver-Max-Delh
          0                 1          11             9    9     1      -0.2431212783E+02       9    9    1      -0.8509170828E+04      0.2828316742E+05      0.1789620138E+00     -0.2431212783E+02
          0                 2           9             9    9     2       0.1218876332E+01       1    9    1       0.5375610292E+03      0.1282375115E+04      0.2828316742E+05      0.1218876332E+01
          0                 3           8             9    9     2       0.6748960179E-01       1    9    1       0.4478296814E+02      0.1255744697E+03      0.1282375115E+04      0.6748960179E-01
          0                 4           7             9    1     1       0.6414475817E-02       1    9    1       0.3812719244E+01      0.1263064721E+02      0.1255744697E+03      0.6414475817E-02
          0                 5           5             9    1     1       0.6892448559E-03       1    9    1       0.3408473528E+00      0.1272659088E+01      0.1263064721E+02      0.6892448559E-03
          0                 6           3             9    1     1       0.7691977361E-04       9    1    1       0.3941155571E-01      0.1354408604E+00      0.1272659088E+01      0.7691977361E-04

    ------------------------------------------------
       NWT REQUIRED            6 OUTER ITERATIONS 
       AND A TOTAL OF         43 INNER ITERATIONS.
    ------------------------------------------------
                                                   Max.-Head-Change                        Max.-Flux-Residual
  Residual-Control   Outer-Iter.   Inner-Iter.     Column Row Layer    Max.-Head-Change    Column Row Layer    Max.-Flux-Residual            L2-New               L2-Old           Solver-Max-Delh
          0                 1          10             8    1     2      -0.3688527659E+01       1    1    1      -0.2343315774E+04      0.6001632332E+04      0.1354408604E+00     -0.3688527659E+01
          0                 2           8             9    9     2       0.2693527221E+00       1    1    1       0.1452883911E+03      0.2845866574E+03      0.6001632332E+04      0.2693527221E+00
          0                 3           7             8    1     2       0.1498000896E-01       1    1    1       0.1125290010E+02      0.2571527835E+02      0.2845866574E+03      0.1498000896E-01
          0                 4           5             3    1     1       0.1111069221E-02       1    1    1       0.9064881634E+00      0.2475013287E+01      0.2571527835E+02      0.1111069221E-02
          0                 5           4             8    1     1       0.1163256272E-03       1    1    1       0.7602502534E-01      0.2476031411E+00      0.2475013287E+01      0.1163256272E-03
          0                 6           3             3    9     1       0.1743768614E-04       6    9    1       0.1061102538E-01      0.3476214572E-01      0.2476031411E+00      0.1743768614E-04

    ------------------------------------------------
       NWT REQUIRED            6 OUTER ITERATIONS 
       AND A TOTAL OF         37 INNER ITERATIONS.
    ------------------------------------------------
                                                   Max.-Head-Change                        Max.-Flux-Residual
  Residual-Control   Outer-Iter.   Inner-Iter.     Column Row Layer    Max.-Head-Change    Column Row Layer    Max.-Flux-Residual            L2-New               L2-Old           Solver-Max-Delh
          0                 1           9             9    9     1       0.1658992389E+01       1    1    1      -0.7875653948E+03      0.2094870830E+04      0.3476214572E-01      0.1658992389E+01
          0                 2           8             1    1     2       0.9138077013E-01       1    1    1       0.5014473912E+02      0.1194275880E+03      0.2094870830E+04      0.9138077013E-01
          0                 3           6             9    9     1      -0.7369220000E-02       8    9    1      -0.3995603562E+01      0.1028713285E+02      0.1194275880E+03     -0.7369220000E-02
          0                 4           5             9    9     1      -0.6977216678E-03       9    9    1      -0.3835651330E+00      0.9217101285E+00      0.1028713285E+02     -0.6977216678E-03
          0                 5           3             9    9     1      -0.5952573984E-04       1    1    1       0.3405321017E-01      0.8938542057E-01      0.9217101285E+00     -0.5952573984E-04

    ------------------------------------------------
       NWT REQUIRED            5 OUTER ITERATIONS 
       AND A TOTAL OF         31 INNER ITERATIONS.
    ------------------------------------------------
                                                   Max.-Head-Change                        Max.-Flux-Residual
  Residual-Control   Outer-Iter.   Inner-Iter.     Column Row Layer    Max.-Head-Change    Column Row Layer    Max.-Flux-Residual            L2-New               L2-Old           Solver-Max-Delh
          0                 1           9             9    9     1       0.1585410919E+01       9    9    1       0.6534692673E+03      0.1283392993E+04      0.8938542057E-01      0.1585410919E+01
          0                 2           7             9    9     2      -0.8399778768E-01       7    9    1      -0.4127814093E+02      0.6909405524E+02      0.1283392993E+04     -0.8399778768E-01
          0                 3           5             9    9     1      -0.6273506203E-02       7    9    1      -0.3275055677E+01      0.6422914808E+01      0.6909405524E+02     -0.6273506203E-02
          0                 4           4             9    9     1      -0.6225044959E-03       9    9    1      -0.3168798411E+00      0.5883322101E+00      0.6422914808E+01     -0.6225044959E-03
          0                 5           3             9    9     1      -0.6202516259E-04       9    9    1      -0.3418758695E-01      0.5815949387E-01      0.5883322101E+00     -0.6202516259E-04

    ------------------------------------------------
       NWT REQUIRED            5 OUTER ITERATIONS 
       AND A TOTAL OF         28 INNER ITERATIONS.
    ------------------------------------------------
                                                   Max.-Head-Change                        Max.-Flux-Residual
  Residual-Control   Outer-Iter.   Inner-Iter.     Column Row Layer    Max.-Head-Change    Column Row Layer    Max.-Flux-Residual            L2-New               L2-Old           Solver-Max-Delh
          0                 1           8             9    9     1       0.8005143335E+00       8    9    1       0.3232821792E+03      0.7317884957E+03      0.5815949387E-01      0.8005143335E+00
          0                 2           7             9    9     2      -0.4916080330E-01       7    9    1      -0.1832275454E+02      0.3223985246E+02      0.7317884957E+03     -0.4916080330E-01
          0                 3           5             9    9     1      -0.2885847163E-02       7    9    1      -0.1499086327E+01      0.3016079788E+01      0.3223985246E+02     -0.2885847163E-02
          0                 4           4             9    9     1      -0.2948416698E-03       9    9    1      -0.1427981382E+00      0.3029711075E+00      0.3016079788E+01     -0.2948416698E-03
          0                 5           2             9    9     1      -0.3578205372E-04       9    9    1      -0.1930472013E-01      0.3463107982E-01      0.3029711075E+00     -0.3578205372E-04

    ------------------------------------------------
       NWT REQUIRED            5 OUTER ITERATIONS 
       AND A TOTAL OF         26 INNER ITERATIONS.
    ------------------------------------------------
                                                   Max.-Head-Change                        Max.-Flux-Residual
  Residual-Control   Outer-Iter.   Inner-Iter.     Column Row Layer    Max.-Head-Change    Column Row Layer    Max.-Flux-Residual            L2-New               L2-Old           Solver-Max-Delh
          0                 1           8             9    9     1       0.2444762169E+00       8    1    1       0.1012166671E+03      0.3678248089E+03      0.3463107982E-01      0.2444762169E+00
          0                 2           7             9    9     2      -0.1646839033E-01       1    1    1      -0.5302280175E+01      0.1482542141E+02      0.3678248089E+03     -0.1646839033E-01
          0                 3           5             9    9     2      -0.9482646043E-03       1    1    1      -0.4206282701E+00      0.1431841350E+01      0.1482542141E+02     -0.9482646043E-03
          0                 4           3             9    1     1      -0.8652925052E-04       7    1    1      -0.4349946178E-01      0.1478794079E+00      0.1431841350E+01     -0.8652925052E-04

    ------------------------------------------------
       NWT REQUIRED            4 OUTER ITERATIONS 
       AND A TOTAL OF         23 INNER ITERATIONS.
    ------------------------------------------------
                                                   Max.-Head-Change                        Max.-Flux-Residual
  Residual-Control   Outer-Iter.   Inner-Iter.     Column Row Layer    Max.-Head-Change    Column Row Layer    Max.-Flux-Residual            L2-New               L2-Old           Solver-Max-Delh
          0                 1           8             9    1     1       0.1328306702E+00       1    1    1       0.6749584165E+02      0.1997158716E+03      0.1478794079E+00      0.1328306702E+00
          0                 2           6             8    1     2      -0.9144621541E-02       1    1    1      -0.4173556532E+01      0.8886752486E+01      0.1997158716E+03     -0.9144621541E-02
          0                 3           5             8    1     2      -0.5221347832E-03       1    1    1      -0.3216935283E+00      0.8292331543E+00      0.8886752486E+01     -0.5221347832E-03
          0                 4           3             7    1     1      -0.4575113323E-04       7    1    1      -0.2699434524E-01      0.8503269196E-01      0.8292331543E+00     -0.4575113323E-04

    ------------------------------------------------
       NWT REQUIRED            4 OUTER ITERATIONS 
       AND A TOTAL OF         22 INNER ITERATIONS.
    ------------------------------------------------
                                                   Max.-Head-Change                        Max.-Flux-Residual
  Residual-Control   Outer-Iter.   Inner-Iter.     Column Row Layer    Max.-Head-Change    Column Row Layer    Max.-Flux-Residual            L2-New               L2-Old           Solver-Max-Delh
          0                 1           8             8    1     2       0.6622047317E-01       1    1    1       0.3979915837E+02      0.1088232788E+03      0.8503269196E-01      0.6622047317E-01
          0                 2           6             8    1     2      -0.4769754236E-02       1    1    1      -0.2504359613E+01      0.5312366003E+01      0.1088232788E+03     -0.4769754236E-02
          0                 3           4             8    1     2      -0.2644829490E-03       1    1    1      -0.1979866568E+00      0.4819771277E+00      0.5312366003E+01     -0.2644829490E-03
          0                 4           3             7    1     1      -0.2458885211E-04       7    1    1      -0.1276470977E-01      0.4656944765E-01      0.4819771277E+00     -0.2458885211E-04

    ------------------------------------------------
       NWT REQUIRED            4 OUTER ITERATIONS 
       AND A TOTAL OF         21 INNER ITERATIONS.
    ------------------------------------------------
                                                   Max.-Head-Change                        Max.-Flux-Residual
  Residual-Control   Outer-Iter.   Inner-Iter.     Column Row Layer    Max.-Head-Change    Column Row Layer    Max.-Flux-Residual            L2-New               L2-Old           Solver-Max-Delh
          0                 1           7             1    4     2       0.2901536501E-01       1    1    1       0.1977400142E+02      0.5124783409E+02      0.4656944765E-01      0.2901536501E-01
          0                 2           5             1    4     2      -0.2179846630E-02       1    1    1      -0.1271538489E+01      0.2650651694E+01      0.5124783409E+02     -0.2179846630E-02
          0                 3           4             1    4     2      -0.1223820321E-03       1    1    1      -0.9599920700E-01      0.2333237342E+00      0.2650651694E+01     -0.1223820321E-03
          0                 4           2             1    6     1      -0.1384498959E-04       8    9    1       0.1159573757E-01      0.3023391918E-01      0.2333237342E+00     -0.1384498959E-04

    ------------------------------------------------
       NWT REQUIRED            4 OUTER ITERATIONS 
       AND A TOTAL OF         18 INNER ITERATIONS.
    ------------------------------------------------
                                                   Max.-Head-Change                        Max.-Flux-Residual
  Residual-Control   Outer-Iter.   Inner-Iter.     Column Row Layer    Max.-Head-Change    Column Row Layer    Max.-Flux-Residual            L2-New               L2-Old           Solver-Max-Delh
          0                 1           7             1    5     2       0.1324654031E-01       1    1    1       0.8388089689E+01      0.2019527579E+02      0.3023391918E-01      0.1324654031E-01
          0                 2           5             1    5     2      -0.1012401592E-02       1    1    1      -0.5414043841E+00      0.1109411688E+01      0.2019527579E+02     -0.1012401592E-02
          0                 3           3             1    5     2      -0.5627059076E-04       1    1    1      -0.3909590677E-01      0.9176127390E-01      0.1109411688E+01     -0.5627059076E-04

    ------------------------------------------------
       NWT REQUIRED            3 OUTER ITERATIONS 
       AND A TOTAL OF         15 INNER ITERATIONS.
    ------------------------------------------------
                                                   Max.-Head-Change                        Max.-Flux-Residual
  Residual-Control   Outer-Iter.   Inner-Iter.     Column Row Layer    Max.-Head-Change    Column Row Layer    Max.-Flux-Residual            L2-New               L2-Old           Solver-Max-Delh
          0                 1           6             9    9     3       0.7211718636E-02       1    9    1       0.3658971618E+01      0.7597074249E+01      0.9176127390E-01      0.7211718636E-02
          0                 2           4             9    9     3      -0.6122088020E-03       1    9    1      -0.2295587124E+00      0.4319840326E+00      0.7597074249E+01     -0.6122088020E-03
          0                 3           3             9    9     3      -0.3255778073E-04       1    9    1      -0.1924424805E-01      0.4244824830E-01      0.4319840326E+00     -0.3255778073E-04

    ------------------------------------------------
       NWT REQUIRED            3 OUTER ITERATIONS 
       AND A TOTAL OF         13 INNER ITERATIONS.
    ------------------------------------------------
                                                   Max.-Head-Change                        Max.-Flux-Residual
  Residual-Control   Outer-Iter.   Inner-Iter.     Column Row Layer    Max.-Head-Change    Column Row Layer    Max.-Flux-Residual            L2-New               L2-Old           Solver-Max-Delh
          0                 1           6             9    9     3       0.3567522148E-02       1    9    1       0.1461298578E+01      0.3641374622E+01      0.4244824830E-01      0.3567522148E-02
          0                 2           4             9    9     3      -0.3034286495E-03       1    9    1      -0.9258698893E-01      0.2025195081E+00      0.3641374622E+01     -0.3034286495E-03
          0                 3           2             9    9     3      -0.1458451075E-04       2    9    1      -0.1010451640E-01      0.1989308762E-01      0.2025195081E+00     -0.1458451075E-04

    ------------------------------------------------
       NWT REQUIRED            3 OUTER ITERATIONS 
       AND A TOTAL OF         12 INNER ITERATIONS.
    ------------------------------------------------
                                                   Max.-Head-Change                        Max.-Flux-Residual
  Residual-Control   Outer-Iter.   Inner-Iter.     Column Row Layer    Max.-Head-Change    Column Row Layer    Max.-Flux-Residual            L2-New               L2-Old           Solver-Max-Delh
          0                 1           5             9    9     2       0.1677070408E-02       7    1    1      -0.6388694545E+00      0.1919355932E+01      0.1989308762E-01      0.1677070408E-02
          0                 2           3             9    9     2      -0.1369885666E-03       4    1    1       0.3252597369E-01      0.1014882225E+00      0.1919355932E+01     -0.1369885666E-03
          0                 3           2             9    9     2      -0.8016442083E-05       5    9    1      -0.8337704756E-02      0.1005423744E-01      0.1014882225E+00     -0.8016442083E-05

    ------------------------------------------------
       NWT REQUIRED            3 OUTER ITERATIONS 
       AND A TOTAL OF         10 INNER ITERATIONS.
    ------------------------------------------------
                                                   Max.-Head-Change                        Max.-Flux-Residual
  Residual-Control   Outer-Iter.   Inner-Iter.     Column Row Layer    Max.-Head-Change    Column Row Layer    Max.-Flux-Residual            L2-New               L2-Old           Solver-Max-Delh
          0                 1           4             9    1     1      -0.7552627242E-03       9    1    1      -0.3458421415E+00      0.9473970799E+00      0.1005423744E-01     -0.7552627242E-03
          0                 2           2             8    1     2       0.4541894987E-04       4    1    1       0.2162810770E-01      0.4850000717E-01      0.9473970799E+00      0.4541894987E-04

    ------------------------------------------------
       NWT REQUIRED            2 OUTER ITERATIONS 
       AND A TOTAL OF          6 INNER ITERATIONS.
    ------------------------------------------------
                                                   Max.-Head-Change                        Max.-Flux-Residual
  Residual-Control   Outer-Iter.   Inner-Iter.     Column Row Layer    Max.-Head-Change    Column Row Layer    Max.-Flux-Residual            L2-New               L2-Old           Solver-Max-Delh
          0                 1           4             9    9     3      -0.5022872468E-03       7    1    1      -0.1555924384E+00      0.5167512893E+00      0.4850000717E-01     -0.5022872468E-03
          0                 2           3             9    9     3       0.3884924449E-04       1    1    1       0.1177139429E-01      0.3091152285E-01      0.5167512893E+00      0.3884924449E-04

    ------------------------------------------------
       NWT REQUIRED            2 OUTER ITERATIONS 
       AND A TOTAL OF          7 INNER ITERATIONS.
    ------------------------------------------------
                                                   Max.-Head-Change                        Max.-Flux-Residual
  Residual-Control   Outer-Iter.   Inner-Iter.     Column Row Layer    Max.-Head-Change    Column Row Layer    Max.-Flux-Residual            L2-New               L2-Old           Solver-Max-Delh
          0                 1           4             9    9     3      -0.3264489347E-03       1    9    1      -0.9029867477E-01      0.3036892510E+00      0.3091152285E-01     -0.3264489347E-03
          0                 2           2             9    9     3       0.2463895796E-04       5    9    1       0.7501907356E-02      0.2179356565E-01      0.3036892510E+00      0.2463895796E-04

    ------------------------------------------------
       NWT REQUIRED            2 OUTER ITERATIONS 
       AND A TOTAL OF          6 INNER ITERATIONS.
    ------------------------------------------------

 OUTPUT CONTROL FOR STRESS PERIOD      1   TIME STEP     1
    SAVE HEAD FOR ALL LAYERS
    SAVE BUDGET
 UBDSV1 SAVING "         STORAGE" ON UNIT7011 AT TIME STEP    1, STRESS PERIOD   1
 UBDSV2 SAVING "   CONSTANT HEAD" ON UNIT7011 AT TIME STEP    1, STRESS PERIOD   1
 UBDSV1 SAVING "FLOW RIGHT FACE " ON UNIT7011 AT TIME STEP    1, STRESS PERIOD   1
 UBDSV1 SAVING "FLOW FRONT FACE " ON UNIT7011 AT TIME STEP    1, STRESS PERIOD   1
 UBDSV1 SAVING "FLOW LOWER FACE " ON UNIT7011 AT TIME STEP    1, STRESS PERIOD   1
 
 
 
 
 
 
 
 
 UBDSV3 SAVING "FARM  NET  RECH." ON UNIT7011 AT TIME STEP    1, STRESS PERIOD   1
 UBDSV4 SAVING " GHOST-NODE HEAD" ON UNIT7011 AT TIME STEP    1, STRESS PERIOD   1

 HEAD WILL BE SAVED ON UNIT 2211 AT END OF TIME STEP     1, STRESS PERIOD      1
1
  FLUX ACROSS PARENT-CHILD INTERFACE AT TIME STEP  1 IN STRESS PERIOD    1
  ------------------------------------------------------------------------
 G-N FLUX        PARENT        CHILD         DIFFERENCE      % DIFFERENCE
  RATE IN:      1.2483E+05    1.2483E+05    -1.4844E-01       -0.0001
 RATE OUT:      0.0000E+00    0.0000E+00     0.0000E+00        0.0000
 
 SOLVING FOR HEAD 
                                                   Max.-Head-Change                        Max.-Flux-Residual
  Residual-Control   Outer-Iter.   Inner-Iter.     Column Row Layer    Max.-Head-Change    Column Row Layer    Max.-Flux-Residual            L2-New               L2-Old           Solver-Max-Delh
          0                 1          10             9    5     1       0.2150911348E+02       2    2    1       0.1977420108E+04      0.1144665348E+05      0.2179356565E-01      0.2150911348E+02
          0                 2          10             9    5     1      -0.3580555755E+01       7    5    1      -0.6443460508E+03      0.3045578852E+04      0.1144665348E+05     -0.3580555755E+01
          0                 3           8             9    5     1      -0.2710295060E+00       9    5    1      -0.6084135091E+02      0.2156124247E+03      0.3045578852E+04     -0.2710295060E+00
          0                 4           7             9    5     1      -0.1410545496E-01       9    5    1      -0.3276989213E+01      0.1158727489E+02      0.2156124247E+03     -0.1410545496E-01
          0                 5           4             9    5     1      -0.7098601610E-03       9    9    1       0.4438885412E+00      0.8428179640E+00      0.1158727489E+02     -0.7098601610E-03
          0                 6           3             9    9     1       0.6935908281E-04       9    9    1       0.7357317418E-01      0.1173769719E+00      0.8428179640E+00      0.6935908281E-04

    ------------------------------------------------
       NWT REQUIRED            6 OUTER ITERATIONS 
       AND A TOTAL OF         42 INNER ITERATIONS.
    ------------------------------------------------
                                                   Max.-Head-Change                        Max.-Flux-Residual
  Residual-Control   Outer-Iter.   Inner-Iter.     Column Row Layer    Max.-Head-Change    Column Row Layer    Max.-Flux-Residual            L2-New               L2-Old           Solver-Max-Delh
          0                 1           9             9    9     1       0.2535708642E+01       9    9    1       0.1027073641E+04      0.2634561439E+04      0.1173769719E+00      0.2535708642E+01
          0                 2           8             9    9     1      -0.2221524098E+00       9    9    1      -0.1152143026E+03      0.2635928892E+03      0.2634561439E+04     -0.2221524098E+00
          0                 3           7             9    9     1      -0.1233128304E-01       9    9    1      -0.6458747422E+01      0.1516595099E+02      0.2635928892E+03     -0.1233128304E-01
          0                 4           4             9    9     1      -0.6743763211E-03       9    9    1      -0.3522999217E+00      0.8707595383E+00      0.1516595099E+02     -0.6743763211E-03
          0                 5           3             9    9     1      -0.4816241382E-04       9    9    1      -0.2523433302E-01      0.5896893701E-01      0.8707595383E+00     -0.4816241382E-04

    ------------------------------------------------
       NWT REQUIRED            5 OUTER ITERATIONS 
       AND A TOTAL OF         31 INNER ITERATIONS.
    ------------------------------------------------
                                                   Max.-Head-Change                        Max.-Flux-Residual
  Residual-Control   Outer-Iter.   Inner-Iter.     Column Row Layer    Max.-Head-Change    Column Row Layer    Max.-Flux-Residual            L2-New               L2-Old           Solver-Max-Delh
          0                 1          10             9    9     1       0.3512734523E+01       9    9    1       0.1468963699E+04      0.4390071865E+04      0.5896893701E-01      0.3512734523E+01
          0                 2           8             9    9     1      -0.2933741285E+00       7    9    1      -0.1638530858E+03      0.4261097394E+03      0.4390071865E+04     -0.2933741285E+00
          0                 3           7             9    9     1      -0.1766168048E-01       9    9    1      -0.9694784674E+01      0.2581797171E+02      0.4261097394E+03     -0.1766168048E-01
          0                 4           5             9    9     1      -0.1047739681E-02       9    9    1      -0.5749714182E+00      0.1551453403E+01      0.2581797171E+02     -0.1047739681E-02
          0                 5           3             9    9     1      -0.7005375248E-04       9    9    1      -0.3899289215E-01      0.1022552401E+00      0.1551453403E+01     -0.7005375248E-04

    ------------------------------------------------
       NWT REQUIRED            5 OUTER ITERATIONS 
       AND A TOTAL OF         33 INNER ITERATIONS.
    ------------------------------------------------
                                                   Max.-Head-Change                        Max.-Flux-Residual
  Residual-Control   Outer-Iter.   Inner-Iter.     Column Row Layer    Max.-Head-Change    Column Row Layer    Max.-Flux-Residual            L2-New               L2-Old           Solver-Max-Delh
          0                 1           9             9    9     1       0.2166546869E+01       1    9    1       0.9489863553E+03      0.3201624800E+04      0.1022552401E+00      0.2166546869E+01
          0                 2           8             9    9     1      -0.1682756049E+00       7    9    1      -0.9246593095E+02      0.2892961530E+03      0.3201624800E+04     -0.1682756049E+00
          0                 3           7             9    9     1      -0.1047243531E-01       9    9    1      -0.5493669434E+01      0.1794367373E+02      0.2892961530E+03     -0.1047243531E-01
          0                 4           5             9    9     1      -0.6513606456E-03       9    9    1      -0.3480407357E+00      0.1112538304E+01      0.1794367373E+02     -0.6513606456E-03
          0                 5           3             8    9     1      -0.4350822566E-04       8    9    1      -0.2684128087E-01      0.7362813404E-01      0.1112538304E+01     -0.4350822566E-04

    ------------------------------------------------
       NWT REQUIRED            5 OUTER ITERATIONS 
       AND A TOTAL OF         32 INNER ITERATIONS.
    ------------------------------------------------
                                                   Max.-Head-Change                        Max.-Flux-Residual
  Residual-Control   Outer-Iter.   Inner-Iter.     Column Row Layer    Max.-Head-Change    Column Row Layer    Max.-Flux-Residual            L2-New               L2-Old           Solver-Max-Delh
          0                 1           9             9    9     1       0.8863173232E+00       1    1    1       0.5804638074E+03      0.1760043513E+04      0.7362813404E-01      0.8863173232E+00
          0                 2           8             8    1     2      -0.6572881099E-01       1    1    1      -0.5274566420E+02      0.1529224693E+03      0.1760043513E+04     -0.6572881099E-01
          0                 3           6             9    9     1      -0.4146845129E-02       1    1    1      -0.3069120397E+01      0.9574354103E+01      0.1529224693E+03     -0.4146845129E-02
          0                 4           4             9    9     1      -0.2587665750E-03       1    1    1      -0.1874240175E+00      0.5967843775E+00      0.9574354103E+01     -0.2587665750E-03
          0                 5           3             9    9     1      -0.2213643723E-04       1    1    1      -0.1421647542E-01      0.4692770586E-01      0.5967843775E+00     -0.2213643723E-04

    ------------------------------------------------
       NWT REQUIRED            5 OUTER ITERATIONS 
       AND A TOTAL OF         30 INNER ITERATIONS.
    ------------------------------------------------
                                                   Max.-Head-Change                        Max.-Flux-Residual
  Residual-Control   Outer-Iter.   Inner-Iter.     Column Row Layer    Max.-Head-Change    Column Row Layer    Max.-Flux-Residual            L2-New               L2-Old           Solver-Max-Delh
          0                 1           9             1    1     1       0.4185865188E+00       1    1    1       0.3203729971E+03      0.8413013893E+03      0.4692770586E-01      0.4185865188E+00
          0                 2           8             7    1     2      -0.3222442779E-01       1    1    1      -0.2906353470E+02      0.7242345715E+02      0.8413013893E+03     -0.3222442779E-01
          0                 3           6             1    1     1      -0.1919893019E-02       1    1    1      -0.1694217664E+01      0.4530822893E+01      0.7242345715E+02     -0.1919893019E-02
          0                 4           4             8    1     1      -0.1248573956E-03       1    9    1      -0.9366706247E-01      0.2796773807E+00      0.4530822893E+01     -0.1248573956E-03
          0                 5           3             9    9     1      -0.1449264506E-04       1    1    1      -0.1428060245E-01      0.3087524083E-01      0.2796773807E+00     -0.1449264506E-04

    ------------------------------------------------
       NWT REQUIRED            5 OUTER ITERATIONS 
       AND A TOTAL OF         30 INNER ITERATIONS.
    ------------------------------------------------
                                                   Max.-Head-Change                        Max.-Flux-Residual
  Residual-Control   Outer-Iter.   Inner-Iter.     Column Row Layer    Max.-Head-Change    Column Row Layer    Max.-Flux-Residual            L2-New               L2-Old           Solver-Max-Delh
          0                 1           9             1    1     1       0.1976712249E+00       1    1    1       0.1546483015E+03      0.3718630989E+03      0.3087524083E-01      0.1976712249E+00
          0                 2           7             1    1     1      -0.1504925306E-01       1    1    1      -0.1401366584E+02      0.3215609262E+02      0.3718630989E+03     -0.1504925306E-01
          0                 3           5             1    1     1      -0.9039099752E-03       1    1    1      -0.8122649448E+00      0.1991214387E+01      0.3215609262E+02     -0.9039099752E-03
          0                 4           4             2    1     1      -0.5461676387E-04       1    1    1      -0.4210018297E-01      0.1225307206E+00      0.1991214387E+01     -0.5461676387E-04

    ------------------------------------------------
       NWT REQUIRED            4 OUTER ITERATIONS 
       AND A TOTAL OF         25 INNER ITERATIONS.
    ------------------------------------------------
                                                   Max.-Head-Change                        Max.-Flux-Residual
  Residual-Control   Outer-Iter.   Inner-Iter.     Column Row Layer    Max.-Head-Change    Column Row Layer    Max.-Flux-Residual            L2-New               L2-Old           Solver-Max-Delh
          0                 1           8             1    1     1       0.8009015326E-01       1    1    1       0.6441942186E+02      0.1496198194E+03      0.1225307206E+00      0.8009015326E-01
          0                 2           7             1    2     2      -0.6173236367E-02       1    1    1      -0.5851602477E+01      0.1308862080E+02      0.1496198194E+03     -0.6173236367E-02
          0                 3           5             1    1     1      -0.3677572345E-03       1    1    1      -0.3416024513E+00      0.7960231747E+00      0.1308862080E+02     -0.3677572345E-03
          0                 4           3             3    1     1      -0.2310633684E-04       1    5    1      -0.1700196677E-01      0.5138964967E-01      0.7960231747E+00     -0.2310633684E-04

    ------------------------------------------------
       NWT REQUIRED            4 OUTER ITERATIONS 
       AND A TOTAL OF         23 INNER ITERATIONS.
    ------------------------------------------------
                                                   Max.-Head-Change                        Max.-Flux-Residual
  Residual-Control   Outer-Iter.   Inner-Iter.     Column Row Layer    Max.-Head-Change    Column Row Layer    Max.-Flux-Residual            L2-New               L2-Old           Solver-Max-Delh
          0                 1           7             1    1     1       0.2558941889E-01       1    1    1       0.2159501519E+02      0.5028459709E+02      0.5138964967E-01      0.2558941889E-01
          0                 2           6             1    2     2      -0.2005412001E-02       1    1    1      -0.1961903438E+01      0.4468273548E+01      0.5028459709E+02     -0.2005412001E-02
          0                 3           4             1    1     1      -0.1189714825E-03       1    1    1      -0.1148488279E+00      0.2677773610E+00      0.4468273548E+01     -0.1189714825E-03
          0                 4           2             3    9     1      -0.1064728641E-04       1    7    1      -0.8955456957E-02      0.2475810523E-01      0.2677773610E+00     -0.1064728641E-04

    ------------------------------------------------
       NWT REQUIRED            4 OUTER ITERATIONS 
       AND A TOTAL OF         19 INNER ITERATIONS.
    ------------------------------------------------
                                                   Max.-Head-Change                        Max.-Flux-Residual
  Residual-Control   Outer-Iter.   Inner-Iter.     Column Row Layer    Max.-Head-Change    Column Row Layer    Max.-Flux-Residual            L2-New               L2-Old           Solver-Max-Delh
          0                 1           7             9    9     3       0.1031967873E-01       1    9    1       0.5573942350E+01      0.1506686568E+02      0.2475810523E-01      0.1031967873E-01
          0                 2           5             9    9     3      -0.8912340041E-03       1    9    1      -0.5103599011E+00      0.1348876996E+01      0.1506686568E+02     -0.8912340041E-03
          0                 3           3             9    9     3      -0.4504893780E-04       1    9    1      -0.2643412497E-01      0.8160927711E-01      0.1348876996E+01     -0.4504893780E-04

    ------------------------------------------------
       NWT REQUIRED            3 OUTER ITERATIONS 
       AND A TOTAL OF         15 INNER ITERATIONS.
    ------------------------------------------------
                                                   Max.-Head-Change                        Max.-Flux-Residual
  Residual-Control   Outer-Iter.   Inner-Iter.     Column Row Layer    Max.-Head-Change    Column Row Layer    Max.-Flux-Residual            L2-New               L2-Old           Solver-Max-Delh
          0                 1           6             9    1     1      -0.8253814952E-02       8    1    1      -0.4000245573E+01      0.1033374443E+02      0.8160927711E-01     -0.8253814952E-02
          0                 2           5             9    1     2       0.6248183697E-03       7    1    1       0.3426392699E+00      0.8886661801E+00      0.1033374443E+02      0.6248183697E-03
          0                 3           3             9    1     1       0.4227488122E-04       7    1    1       0.2464307402E-01      0.6330860930E-01      0.8886661801E+00      0.4227488122E-04

    ------------------------------------------------
       NWT REQUIRED            3 OUTER ITERATIONS 
       AND A TOTAL OF         14 INNER ITERATIONS.
    ------------------------------------------------
                                                   Max.-Head-Change                        Max.-Flux-Residual
  Residual-Control   Outer-Iter.   Inner-Iter.     Column Row Layer    Max.-Head-Change    Column Row Layer    Max.-Flux-Residual            L2-New               L2-Old           Solver-Max-Delh
          0                 1           6             9    1     1      -0.5236191170E-02       8    1    1      -0.2477134104E+01      0.7887316145E+01      0.6330860930E-01     -0.5236191170E-02
          0                 2           5             8    1     2       0.4134720415E-03       7    1    1       0.2140072413E+00      0.6708862096E+00      0.7887316145E+01      0.4134720415E-03
          0                 3           3             9    1     1       0.2305929861E-04       1    9    1       0.1441186969E-01      0.4357482446E-01      0.6708862096E+00      0.2305929861E-04

    ------------------------------------------------
       NWT REQUIRED            3 OUTER ITERATIONS 
       AND A TOTAL OF         14 INNER ITERATIONS.
    ------------------------------------------------
                                                   Max.-Head-Change                        Max.-Flux-Residual
  Residual-Control   Outer-Iter.   Inner-Iter.     Column Row Layer    Max.-Head-Change    Column Row Layer    Max.-Flux-Residual            L2-New               L2-Old           Solver-Max-Delh
          0                 1           6             9    1     1      -0.2694001056E-02       1    1    1      -0.1628897071E+01      0.4852739570E+01      0.4357482446E-01     -0.2694001056E-02
          0                 2           4             8    1     2       0.2201294283E-03       1    1    1       0.1439333241E+00      0.4147642161E+00      0.4852739570E+01      0.2201294283E-03
          0                 3           3             5    1     1       0.1371695081E-04       1    9    1       0.1547326206E-01      0.3146785648E-01      0.4147642161E+00      0.1371695081E-04

    ------------------------------------------------
       NWT REQUIRED            3 OUTER ITERATIONS 
       AND A TOTAL OF         13 INNER ITERATIONS.
    ------------------------------------------------
                                                   Max.-Head-Change                        Max.-Flux-Residual
  Residual-Control   Outer-Iter.   Inner-Iter.     Column Row Layer    Max.-Head-Change    Column Row Layer    Max.-Flux-Residual            L2-New               L2-Old           Solver-Max-Delh
          0                 1           6             1    5     1      -0.1384483081E-02       1    1    1      -0.9666710051E+00      0.2668426951E+01      0.3146785648E-01     -0.1384483081E-02
          0                 2           4             1    5     2       0.1127107572E-03       1    1    1       0.8392278221E-01      0.2272993730E+00      0.2668426951E+01      0.1127107572E-03
          0                 3           2             1    5     1       0.9523027133E-05       1    4    1       0.8393000695E-02      0.1935525757E-01      0.2272993730E+00      0.9523027133E-05

    ------------------------------------------------
       NWT REQUIRED            3 OUTER ITERATIONS 
       AND A TOTAL OF         12 INNER ITERATIONS.
    ------------------------------------------------
                                                   Max.-Head-Change                        Max.-Flux-Residual
  Residual-Control   Outer-Iter.   Inner-Iter.     Column Row Layer    Max.-Head-Change    Column Row Layer    Max.-Flux-Residual            L2-New               L2-Old           Solver-Max-Delh
          0                 1           5             5    9     2      -0.8076767632E-03       1    9    1      -0.5620865448E+00      0.1385863556E+01      0.1935525757E-01     -0.8076767632E-03
          0                 2           4             5    9     2       0.6651276642E-04       1    9    1       0.5378774047E-01      0.1198243070E+00      0.1385863556E+01      0.6651276642E-04

    ------------------------------------------------
       NWT REQUIRED            2 OUTER ITERATIONS 
       AND A TOTAL OF          9 INNER ITERATIONS.
    ------------------------------------------------
                                                   Max.-Head-Change                        Max.-Flux-Residual
  Residual-Control   Outer-Iter.   Inner-Iter.     Column Row Layer    Max.-Head-Change    Column Row Layer    Max.-Flux-Residual            L2-New               L2-Old           Solver-Max-Delh
          0                 1           4             9    9     2      -0.4735081596E-03       1    9    1      -0.2913493662E+00      0.6661311856E+00      0.1198243070E+00     -0.4735081596E-03
          0                 2           3             9    9     2       0.3914417258E-04       1    9    1       0.2374921762E-01      0.6177232477E-01      0.6661311856E+00      0.3914417258E-04

    ------------------------------------------------
       NWT REQUIRED            2 OUTER ITERATIONS 
       AND A TOTAL OF          7 INNER ITERATIONS.
    ------------------------------------------------
                                                   Max.-Head-Change                        Max.-Flux-Residual
  Residual-Control   Outer-Iter.   Inner-Iter.     Column Row Layer    Max.-Head-Change    Column Row Layer    Max.-Flux-Residual            L2-New               L2-Old           Solver-Max-Delh
          0                 1           4             6    9     2      -0.1900069408E-03       1    9    1      -0.1311220472E+00      0.2758460751E+00      0.6177232477E-01     -0.1900069408E-03
          0                 2           3             1    9     1       0.1859331818E-04       1    9    1       0.2100690163E-01      0.3765977837E-01      0.2758460751E+00      0.1859331818E-04

    ------------------------------------------------
       NWT REQUIRED            2 OUTER ITERATIONS 
       AND A TOTAL OF          7 INNER ITERATIONS.
    ------------------------------------------------

 OUTPUT CONTROL FOR STRESS PERIOD      1   TIME STEP     2
    SAVE BUDGET
 UBDSV1 SAVING "         STORAGE" ON UNIT7011 AT TIME STEP    2, STRESS PERIOD   1
 UBDSV2 SAVING "   CONSTANT HEAD" ON UNIT7011 AT TIME STEP    2, STRESS PERIOD   1
 UBDSV1 SAVING "FLOW RIGHT FACE " ON UNIT7011 AT TIME STEP    2, STRESS PERIOD   1
 UBDSV1 SAVING "FLOW FRONT FACE " ON UNIT7011 AT TIME STEP    2, STRESS PERIOD   1
 UBDSV1 SAVING "FLOW LOWER FACE " ON UNIT7011 AT TIME STEP    2, STRESS PERIOD   1
 
 
 
 
 
 
 
 
 UBDSV3 SAVING "FARM  NET  RECH." ON UNIT7011 AT TIME STEP    2, STRESS PERIOD   1
 UBDSV4 SAVING " GHOST-NODE HEAD" ON UNIT7011 AT TIME STEP    2, STRESS PERIOD   1
1
  VOLUMETRIC BUDGET FOR ENTIRE MODEL AT END OF TIME STEP    2 IN STRESS PERIOD      1
  ------------------------------------------------------------------------------

     CUMULATIVE VOLUMES      L**3       RATES FOR THIS TIME STEP      L**3/T
     ------------------                 ------------------------

           IN:                                      IN:
           ---                                      ---
             STORAGE =       58067.2578               STORAGE =         290.9165
       CONSTANT HEAD =           0.0000         CONSTANT HEAD =           0.0000
          FARM WELLS =           0.0000            FARM WELLS =           0.0000
    FARM  NET  RECH. =       54389.4219      FARM  NET  RECH. =        1787.9495
     GHOST-NODE HEAD =     2610039.5000       GHOST-NODE HEAD =       46771.3516

            TOTAL IN =     2722496.2500              TOTAL IN =       48850.2188

          OUT:                                     OUT:
          ----                                     ----
             STORAGE =     2722496.5000               STORAGE =       48850.2305
       CONSTANT HEAD =           0.0000         CONSTANT HEAD =           0.0000
          FARM WELLS =           0.0000            FARM WELLS =           0.0000
    FARM  NET  RECH. =           0.0000      FARM  NET  RECH. =           0.0000
     GHOST-NODE HEAD =           0.0000       GHOST-NODE HEAD =           0.0000

           TOTAL OUT =     2722496.5000             TOTAL OUT =       48850.2305

            IN - OUT =          -0.2500              IN - OUT =      -1.1719E-02

 PERCENT DISCREPANCY =          -0.00     PERCENT DISCREPANCY =          -0.00






          TIME SUMMARY AT END OF TIME STEP     2 IN STRESS PERIOD      1
                    SECONDS     MINUTES      HOURS       DAYS        YEARS
                    -----------------------------------------------------------
   TIME STEP LENGTH 1.31414E+06  21902.      365.04      15.210     4.16427E-02
 STRESS PERIOD TIME 2.62829E+06  43805.      730.08      30.420     8.32854E-02
         TOTAL TIME 2.62829E+06  43805.      730.08      30.420     8.32854E-02
1
1
  FLUX ACROSS PARENT-CHILD INTERFACE AT TIME STEP  2 IN STRESS PERIOD    1
  ------------------------------------------------------------------------
 G-N FLUX        PARENT        CHILD         DIFFERENCE      % DIFFERENCE
  RATE IN:      4.6772E+04    4.6771E+04     9.2188E-01        0.0020
 RATE OUT:      0.0000E+00    0.0000E+00     0.0000E+00        0.0000
1
                            STRESS PERIOD NO.      2, LENGTH =   30.42000    
                            -----------------------------------------------

                              NUMBER OF TIME STEPS =     2

                               MULTIPLIER FOR DELT =     1.000

                            INITIAL TIME STEP SIZE =   15.21000    
 WELL NO. LAYER    ROW    COL  F-WELL ID    FARM ID         QMAX         QMAXRESET       LGRGRID         
 --------------------------------------------------------------------------------------------------------
       1      1      8      2          2          1      5.0000E+00     0    0
       2      1      8      8          3          1      5.0000E+00     0    0

 Parameter:  WELLS1
 WELL NO. LAYER    ROW    COL  F-WELL ID    FARM ID         QMAX         QMAXRESET       LGRGRID         
 --------------------------------------------------------------------------------------------------------
       3      1      8      2          2          1      5.0000E+03              0              0
       4      1      8      8          3          1      5.0000E+03              0              0

 NUMBER OF ACTIVE FARM WELLS:        4

 FARM-ID  NUMBER OF WELLS PER FARM  TOTAL MAX.CAPACITY PER FARM
       1                         4                   10010.0000
       2                         0                       0.0000
       3                         0                       0.0000
       4                         0                       0.0000
       5                         0                       0.0000
       6                         0                       0.0000
       7                         0                       0.0000
       8                         0                       0.0000

Transpiratory and Evaporative Fractions of Crop Consumptive Use
    % Transpiration % Evap. for Precip. % Evap. for Irrig.
    2          0.822          0.178          0.158
    3          0.845          0.155          0.155

FRACTIONS OF IN-EFFICIENT LOSSES TO SW-RUNOFF FROM 
     PRECIPITATION:  IRRIGATION:
    2          0.400          0.300
    3          0.600          0.500
 
 SOLVING FOR HEAD 
                                                   Max.-Head-Change                        Max.-Flux-Residual
  Residual-Control   Outer-Iter.   Inner-Iter.     Column Row Layer    Max.-Head-Change    Column Row Layer    Max.-Flux-Residual            L2-New               L2-Old           Solver-Max-Delh
          0                 1          10             9    5     1       0.1132865835E+02       9    9    1       0.9207741185E+03      0.5761336986E+04      0.3765977837E-01      0.1132865835E+02
          0                 2           9             9    5     1      -0.1390454644E+01       9    5    1      -0.2071010514E+03      0.8479672293E+03      0.5761336986E+04     -0.1390454644E+01
          0                 3           8             9    5     1      -0.8049298499E-01       9    5    1      -0.1321073391E+02      0.4849993941E+02      0.8479672293E+03     -0.8049298499E-01
          0                 4           6             9    5     1      -0.4085975941E-02       9    5    1      -0.6715756839E+00      0.2431874047E+01      0.4849993941E+02     -0.4085975941E-02
          0                 5           4             9    5     1      -0.2064429564E-03       9    5    1      -0.3356847583E-01      0.1218248932E+00      0.2431874047E+01     -0.2064429564E-03
          0                 6           2             9    5     1      -0.9793823134E-05       1    9    1      -0.7141368231E-02      0.1555772150E-01      0.1218248932E+00     -0.9793823134E-05

    ------------------------------------------------
       NWT REQUIRED            6 OUTER ITERATIONS 
       AND A TOTAL OF         39 INNER ITERATIONS.
    ------------------------------------------------
                                                   Max.-Head-Change                        Max.-Flux-Residual
  Residual-Control   Outer-Iter.   Inner-Iter.     Column Row Layer    Max.-Head-Change    Column Row Layer    Max.-Flux-Residual            L2-New               L2-Old           Solver-Max-Delh
          0                 1           9             9    9     1       0.1947287907E+01       9    9    1       0.9200937445E+03      0.2523095660E+04      0.1555772150E-01      0.1947287907E+01
          0                 2           8             9    9     1      -0.1695050630E+00       7    9    1      -0.9887535230E+02      0.2560266509E+03      0.2523095660E+04     -0.1695050630E+00
          0                 3           7             9    9     1      -0.9001640180E-02       9    9    1      -0.5259385932E+01      0.1375246216E+02      0.2560266509E+03     -0.9001640180E-02
          0                 4           4             9    9     1      -0.4726310814E-03       9    9    1      -0.2766332103E+00      0.7335396093E+00      0.1375246216E+02     -0.4726310814E-03
          0                 5           3             9    9     1      -0.2968831641E-04       9    9    1      -0.2070623390E-01      0.4387577026E-01      0.7335396093E+00     -0.2968831641E-04

    ------------------------------------------------
       NWT REQUIRED            5 OUTER ITERATIONS 
       AND A TOTAL OF         31 INNER ITERATIONS.
    ------------------------------------------------
                                                   Max.-Head-Change                        Max.-Flux-Residual
  Residual-Control   Outer-Iter.   Inner-Iter.     Column Row Layer    Max.-Head-Change    Column Row Layer    Max.-Flux-Residual            L2-New               L2-Old           Solver-Max-Delh
          0                 1           9             9    9     1       0.1377461495E+01       9    9    1       0.6455439836E+03      0.2065082540E+04      0.4387577026E-01      0.1377461495E+01
          0                 2           8             9    9     1      -0.1160522036E+00       7    9    1      -0.6672148872E+02      0.2020543494E+03      0.2065082540E+04     -0.1160522036E+00
          0                 3           6             9    9     1      -0.6309458166E-02       9    9    1      -0.3579727273E+01      0.1105312199E+02      0.2020543494E+03     -0.6309458166E-02
          0                 4           4             9    9     1      -0.3414618984E-03       8    9    1      -0.1943802125E+00      0.6016961321E+00      0.1105312199E+02     -0.3414618984E-03
          0                 5           3             9    9     1      -0.1795352945E-04       1    1    1      -0.1372879208E-01      0.3723458667E-01      0.6016961321E+00     -0.1795352945E-04

    ------------------------------------------------
       NWT REQUIRED            5 OUTER ITERATIONS 
       AND A TOTAL OF         30 INNER ITERATIONS.
    ------------------------------------------------
                                                   Max.-Head-Change                        Max.-Flux-Residual
  Residual-Control   Outer-Iter.   Inner-Iter.     Column Row Layer    Max.-Head-Change    Column Row Layer    Max.-Flux-Residual            L2-New               L2-Old           Solver-Max-Delh
          0                 1           9             9    9     1       0.6249963126E+00       1    9    1       0.3556817374E+03      0.1199047267E+04      0.3723458667E-01      0.6249963126E+00
          0                 2           8             9    9     1      -0.5131059003E-01       1    1    1      -0.3404984443E+02      0.1143452795E+03      0.1199047267E+04     -0.5131059003E-01
          0                 3           6             9    9     1      -0.2814546723E-02       1    9    1      -0.1844225523E+01      0.6304503751E+01      0.1143452795E+03     -0.2814546723E-02
          0                 4           4             9    9     1      -0.1565609847E-03       1    9    1      -0.9640060051E-01      0.3512271218E+00      0.6304503751E+01     -0.1565609847E-03
          0                 5           3             7    9     1      -0.1198693761E-04       1    9    1      -0.1302115625E-01      0.2677071014E-01      0.3512271218E+00     -0.1198693761E-04

    ------------------------------------------------
       NWT REQUIRED            5 OUTER ITERATIONS 
       AND A TOTAL OF         30 INNER ITERATIONS.
    ------------------------------------------------
                                                   Max.-Head-Change                        Max.-Flux-Residual
  Residual-Control   Outer-Iter.   Inner-Iter.     Column Row Layer    Max.-Head-Change    Column Row Layer    Max.-Flux-Residual            L2-New               L2-Old           Solver-Max-Delh
          0                 1           9             8    1     2       0.3142901520E+00       1    1    1       0.2091306702E+03      0.5950536278E+03      0.2677071014E-01      0.3142901520E+00
          0                 2           8             8    1     2      -0.2665415584E-01       1    1    1      -0.2001819198E+02      0.5617018228E+02      0.5950536278E+03     -0.2665415584E-01
          0                 3           6             9    1     1      -0.1370770853E-02       1    1    1      -0.1075943690E+01      0.3105564560E+01      0.5617018228E+02     -0.1370770853E-02
          0                 4           4             9    1     1      -0.8020896695E-04       1    1    1      -0.6056863326E-01      0.1736149381E+00      0.3105564560E+01     -0.8020896695E-04

    ------------------------------------------------
       NWT REQUIRED            4 OUTER ITERATIONS 
       AND A TOTAL OF         27 INNER ITERATIONS.
    ------------------------------------------------
                                                   Max.-Head-Change                        Max.-Flux-Residual
  Residual-Control   Outer-Iter.   Inner-Iter.     Column Row Layer    Max.-Head-Change    Column Row Layer    Max.-Flux-Residual            L2-New               L2-Old           Solver-Max-Delh
          0                 1           8             8    1     2       0.1380820020E+00       1    1    1       0.1071559272E+03      0.2732295569E+03      0.1736149381E+00      0.1380820020E+00
          0                 2           7             8    1     2      -0.1171802645E-01       1    1    1      -0.1024886302E+02      0.2573944652E+02      0.2732295569E+03     -0.1171802645E-01
          0                 3           5             1    1     1      -0.6081168030E-03       1    1    1      -0.5495207130E+00      0.1416984034E+01      0.2573944652E+02     -0.6081168030E-03
          0                 4           3             1    4     1      -0.3576497900E-04       1    1    1      -0.3131869691E-01      0.8219466400E-01      0.1416984034E+01     -0.3576497900E-04

    ------------------------------------------------
       NWT REQUIRED            4 OUTER ITERATIONS 
       AND A TOTAL OF         23 INNER ITERATIONS.
    ------------------------------------------------
                                                   Max.-Head-Change                        Max.-Flux-Residual
  Residual-Control   Outer-Iter.   Inner-Iter.     Column Row Layer    Max.-Head-Change    Column Row Layer    Max.-Flux-Residual            L2-New               L2-Old           Solver-Max-Delh
          0                 1           8             1    2     2       0.5966973310E-01       1    1    1       0.4778886852E+02      0.1154474392E+03      0.8219466400E-01      0.5966973310E-01
          0                 2           7             1    2     2      -0.5083402677E-02       1    1    1      -0.4572952526E+01      0.1089452581E+02      0.1154474392E+03     -0.5083402677E-02
          0                 3           5             1    1     1      -0.2625217280E-03       1    1    1      -0.2409921236E+00      0.5989277741E+00      0.1089452581E+02     -0.2625217280E-03
          0                 4           3             1    1     1      -0.1754611523E-04       1    1    1      -0.1952716056E-01      0.3878364163E-01      0.5989277741E+00     -0.1754611523E-04

    ------------------------------------------------
       NWT REQUIRED            4 OUTER ITERATIONS 
       AND A TOTAL OF         23 INNER ITERATIONS.
    ------------------------------------------------
                                                   Max.-Head-Change                        Max.-Flux-Residual
  Residual-Control   Outer-Iter.   Inner-Iter.     Column Row Layer    Max.-Head-Change    Column Row Layer    Max.-Flux-Residual            L2-New               L2-Old           Solver-Max-Delh
          0                 1           7             1    2     2       0.2184991781E-01       1    1    1       0.1780408707E+02      0.4117751573E+02      0.3878364163E-01      0.2184991781E-01
          0                 2           6             1    2     2      -0.1862639591E-02       1    1    1      -0.1697500039E+01      0.3888735107E+01      0.4117751573E+02     -0.1862639591E-02
          0                 3           4             1    1     1      -0.9662930447E-04       1    1    1      -0.9311928530E-01      0.2153516634E+00      0.3888735107E+01     -0.9662930447E-04

    ------------------------------------------------
       NWT REQUIRED            3 OUTER ITERATIONS 
       AND A TOTAL OF         17 INNER ITERATIONS.
    ------------------------------------------------
                                                   Max.-Head-Change                        Max.-Flux-Residual
  Residual-Control   Outer-Iter.   Inner-Iter.     Column Row Layer    Max.-Head-Change    Column Row Layer    Max.-Flux-Residual            L2-New               L2-Old           Solver-Max-Delh
          0                 1           6             3    9     3       0.7416122021E-02       1    9    1       0.5227492923E+01      0.1181876113E+02      0.2153516634E+00      0.7416122021E-02
          0                 2           5             3    9     3      -0.6414696410E-03       1    9    1      -0.5032956735E+00      0.1128485320E+01      0.1181876113E+02     -0.6414696410E-03
          0                 3           3             3    9     3      -0.3068592220E-04       1    1    1      -0.2894759877E-01      0.6327102248E-01      0.1128485320E+01     -0.3068592220E-04

    ------------------------------------------------
       NWT REQUIRED            3 OUTER ITERATIONS 
       AND A TOTAL OF         14 INNER ITERATIONS.
    ------------------------------------------------
                                                   Max.-Head-Change                        Max.-Flux-Residual
  Residual-Control   Outer-Iter.   Inner-Iter.     Column Row Layer    Max.-Head-Change    Column Row Layer    Max.-Flux-Residual            L2-New               L2-Old           Solver-Max-Delh
          0                 1           6             9    1     1      -0.5022513573E-02       9    1    1      -0.2660375918E+01      0.6547571376E+01      0.6327102248E-01     -0.5022513573E-02
          0                 2           4             9    1     2       0.4069399000E-03       7    1    1       0.2535090066E+00      0.6214503404E+00      0.6547571376E+01      0.4069399000E-03
          0                 3           2             9    1     1       0.2568111721E-04       9    1    1       0.1921532740E-01      0.3643336088E-01      0.6214503404E+00      0.2568111721E-04

    ------------------------------------------------
       NWT REQUIRED            3 OUTER ITERATIONS 
       AND A TOTAL OF         12 INNER ITERATIONS.
    ------------------------------------------------
                                                   Max.-Head-Change                        Max.-Flux-Residual
  Residual-Control   Outer-Iter.   Inner-Iter.     Column Row Layer    Max.-Head-Change    Column Row Layer    Max.-Flux-Residual            L2-New               L2-Old           Solver-Max-Delh
          0                 1           6             9    1     1      -0.3634332334E-02       8    1    1      -0.1871300489E+01      0.5226854795E+01      0.3643336088E-01     -0.3634332334E-02
          0                 2           4             9    1     2       0.3055628855E-03       8    1    1       0.1810183325E+00      0.4969337741E+00      0.5226854795E+01      0.3055628855E-03
          0                 3           3             9    1     1       0.1729909676E-04       7    1    1       0.1032025879E-01      0.3263245677E-01      0.4969337741E+00      0.1729909676E-04

    ------------------------------------------------
       NWT REQUIRED            3 OUTER ITERATIONS 
       AND A TOTAL OF         13 INNER ITERATIONS.
    ------------------------------------------------
                                                   Max.-Head-Change                        Max.-Flux-Residual
  Residual-Control   Outer-Iter.   Inner-Iter.     Column Row Layer    Max.-Head-Change    Column Row Layer    Max.-Flux-Residual            L2-New               L2-Old           Solver-Max-Delh
          0                 1           6             9    1     2      -0.2071871956E-02       8    1    1      -0.1015548378E+01      0.3310973305E+01      0.3263245677E-01     -0.2071871956E-02
          0                 2           4             9    1     2       0.1757063137E-03       9    1    1       0.9946435806E-01      0.3100807826E+00      0.3310973305E+01      0.1757063137E-03
          0                 3           3             1    1     1       0.1329365135E-04       1    1    1       0.1375648787E-01      0.3027431447E-01      0.3100807826E+00      0.1329365135E-04

    ------------------------------------------------
       NWT REQUIRED            3 OUTER ITERATIONS 
       AND A TOTAL OF         13 INNER ITERATIONS.
    ------------------------------------------------
                                                   Max.-Head-Change                        Max.-Flux-Residual
  Residual-Control   Outer-Iter.   Inner-Iter.     Column Row Layer    Max.-Head-Change    Column Row Layer    Max.-Flux-Residual            L2-New               L2-Old           Solver-Max-Delh
          0                 1           5             9    1     2      -0.9984725365E-03       1    1    1      -0.6230855337E+00      0.1875617614E+01      0.3027431447E-01     -0.9984725365E-03
          0                 2           4             9    1     2       0.8394405937E-04       1    1    1       0.6329620315E-01      0.1807100210E+00      0.1875617614E+01      0.8394405937E-04

    ------------------------------------------------
       NWT REQUIRED            2 OUTER ITERATIONS 
       AND A TOTAL OF          9 INNER ITERATIONS.
    ------------------------------------------------
                                                   Max.-Head-Change                        Max.-Flux-Residual
  Residual-Control   Outer-Iter.   Inner-Iter.     Column Row Layer    Max.-Head-Change    Column Row Layer    Max.-Flux-Residual            L2-New               L2-Old           Solver-Max-Delh
          0                 1           5             6    9     2      -0.5647466820E-03       1    9    1      -0.3867913872E+00      0.1010989992E+01      0.1807100210E+00     -0.5647466820E-03
          0                 2           3             6    9     2       0.4673501956E-04       1    9    1       0.3558482789E-01      0.9449207138E-01      0.1010989992E+01      0.4673501956E-04

    ------------------------------------------------
       NWT REQUIRED            2 OUTER ITERATIONS 
       AND A TOTAL OF          8 INNER ITERATIONS.
    ------------------------------------------------
                                                   Max.-Head-Change                        Max.-Flux-Residual
  Residual-Control   Outer-Iter.   Inner-Iter.     Column Row Layer    Max.-Head-Change    Column Row Layer    Max.-Flux-Residual            L2-New               L2-Old           Solver-Max-Delh
          0                 1           4             9    9     2      -0.3477931074E-03       1    9    1      -0.1937667321E+00      0.5021404831E+00      0.9449207138E-01     -0.3477931074E-03
          0                 2           3             9    9     2       0.2827524841E-04       1    9    1       0.1816940901E-01      0.4691612947E-01      0.5021404831E+00      0.2827524841E-04

    ------------------------------------------------
       NWT REQUIRED            2 OUTER ITERATIONS 
       AND A TOTAL OF          7 INNER ITERATIONS.
    ------------------------------------------------

 OUTPUT CONTROL FOR STRESS PERIOD      2   TIME STEP     1
    SAVE BUDGET
 UBDSV1 SAVING "         STORAGE" ON UNIT7011 AT TIME STEP    1, STRESS PERIOD   2
 UBDSV2 SAVING "   CONSTANT HEAD" ON UNIT7011 AT TIME STEP    1, STRESS PERIOD   2
 UBDSV1 SAVING "FLOW RIGHT FACE " ON UNIT7011 AT TIME STEP    1, STRESS PERIOD   2
 UBDSV1 SAVING "FLOW FRONT FACE " ON UNIT7011 AT TIME STEP    1, STRESS PERIOD   2
 UBDSV1 SAVING "FLOW LOWER FACE " ON UNIT7011 AT TIME STEP    1, STRESS PERIOD   2
 
 
 
 
 
 
 
 
 UBDSV3 SAVING "FARM  NET  RECH." ON UNIT7011 AT TIME STEP    1, STRESS PERIOD   2
 UBDSV4 SAVING " GHOST-NODE HEAD" ON UNIT7011 AT TIME STEP    1, STRESS PERIOD   2
1
  FLUX ACROSS PARENT-CHILD INTERFACE AT TIME STEP  1 IN STRESS PERIOD    2
  ------------------------------------------------------------------------
 G-N FLUX        PARENT        CHILD         DIFFERENCE      % DIFFERENCE
  RATE IN:      2.3133E+04    2.3132E+04     8.5352E-01        0.0037
 RATE OUT:      0.0000E+00    0.0000E+00     0.0000E+00        0.0000
 
 SOLVING FOR HEAD 
                                                   Max.-Head-Change                        Max.-Flux-Residual
  Residual-Control   Outer-Iter.   Inner-Iter.     Column Row Layer    Max.-Head-Change    Column Row Layer    Max.-Flux-Residual            L2-New               L2-Old           Solver-Max-Delh
          0                 1          10             9    5     1       0.5848884707E+01       9    9    1       0.9656325079E+03      0.3866279286E+04      0.4691612947E-01      0.5848884707E+01
          0                 2           9             9    5     1      -0.5978647252E+00       7    9    1      -0.7094404336E+02      0.3882621003E+03      0.3866279286E+04     -0.5978647252E+00
          0                 3           7             9    5     1      -0.3153773892E-01       9    6    1      -0.3883264897E+01      0.1997051498E+02      0.3882621003E+03     -0.3153773892E-01
          0                 4           5             9    5     1      -0.1586547033E-02       9    6    1      -0.1950841802E+00      0.1015501451E+01      0.1997051498E+02     -0.1586547033E-02
          0                 5           3             9    6     1      -0.8035841733E-04       5    9    1      -0.1182363759E-01      0.5333757951E-01      0.1015501451E+01     -0.8035841733E-04

    ------------------------------------------------
       NWT REQUIRED            5 OUTER ITERATIONS 
       AND A TOTAL OF         34 INNER ITERATIONS.
    ------------------------------------------------
                                                   Max.-Head-Change                        Max.-Flux-Residual
  Residual-Control   Outer-Iter.   Inner-Iter.     Column Row Layer    Max.-Head-Change    Column Row Layer    Max.-Flux-Residual            L2-New               L2-Old           Solver-Max-Delh
          0                 1           9             9    9     1       0.1286963070E+01       9    9    1       0.6436967615E+03      0.1925984685E+04      0.5333757951E-01      0.1286963070E+01
          0                 2           8             9    9     1      -0.1117229677E+00       7    9    1      -0.6747761077E+02      0.1945635229E+03      0.1925984685E+04     -0.1117229677E+00
          0                 3           6             9    9     1      -0.5765339658E-02       9    9    1      -0.3474177067E+01      0.1010278926E+02      0.1945635229E+03     -0.5765339658E-02
          0                 4           4             9    9     1      -0.3017582181E-03       9    9    1      -0.1841652547E+00      0.5334797214E+00      0.1010278926E+02     -0.3017582181E-03
          0                 5           3             9    9     1      -0.1440217710E-04       1    9    1      -0.1189023512E-01      0.2925604945E-01      0.5334797214E+00     -0.1440217710E-04

    ------------------------------------------------
       NWT REQUIRED            5 OUTER ITERATIONS 
       AND A TOTAL OF         30 INNER ITERATIONS.
    ------------------------------------------------
                                                   Max.-Head-Change                        Max.-Flux-Residual
  Residual-Control   Outer-Iter.   Inner-Iter.     Column Row Layer    Max.-Head-Change    Column Row Layer    Max.-Flux-Residual            L2-New               L2-Old           Solver-Max-Delh
          0                 1           9             9    9     1       0.7329946453E+00       1    9    1       0.3715311192E+03      0.1263114009E+04      0.2925604945E-01      0.7329946453E+00
          0                 2           8             9    9     1      -0.6241974618E-01       7    9    1      -0.3646242411E+02      0.1249100419E+03      0.1263114009E+04     -0.6241974618E-01
          0                 3           6             9    9     1      -0.3262673694E-02       1    9    1      -0.1903685139E+01      0.6541777316E+01      0.1249100419E+03     -0.3262673694E-02
          0                 4           4             9    9     1      -0.1708257850E-03       8    9    1      -0.9980991436E-01      0.3456053540E+00      0.6541777316E+01     -0.1708257850E-03
          0                 5           2             3    1     1      -0.9137050759E-05       8    1    1      -0.8099637053E-02      0.2445509244E-01      0.3456053540E+00     -0.9137050759E-05

    ------------------------------------------------
       NWT REQUIRED            5 OUTER ITERATIONS 
       AND A TOTAL OF         29 INNER ITERATIONS.
    ------------------------------------------------
                                                   Max.-Head-Change                        Max.-Flux-Residual
  Residual-Control   Outer-Iter.   Inner-Iter.     Column Row Layer    Max.-Head-Change    Column Row Layer    Max.-Flux-Residual            L2-New               L2-Old           Solver-Max-Delh
          0                 1           9             8    1     2       0.3244423056E+00       1    1    1       0.2058638880E+03      0.6567265174E+03      0.2445509244E-01      0.3244423056E+00
          0                 2           8             8    1     2      -0.2781222537E-01       1    1    1      -0.2013254179E+02      0.6417014569E+02      0.6567265174E+03     -0.2781222537E-01
          0                 3           6             9    1     1      -0.1410261414E-02       1    1    1      -0.1053411649E+01      0.3375386171E+01      0.6417014569E+02     -0.1410261414E-02
          0                 4           4             9    1     1      -0.7221646923E-04       1    9    1      -0.5660255445E-01      0.1770198789E+00      0.3375386171E+01     -0.7221646923E-04

    ------------------------------------------------
       NWT REQUIRED            4 OUTER ITERATIONS 
       AND A TOTAL OF         27 INNER ITERATIONS.
    ------------------------------------------------
                                                   Max.-Head-Change                        Max.-Flux-Residual
  Residual-Control   Outer-Iter.   Inner-Iter.     Column Row Layer    Max.-Head-Change    Column Row Layer    Max.-Flux-Residual            L2-New               L2-Old           Solver-Max-Delh
          0                 1           8             8    1     2       0.1577675257E+00       1    1    1       0.1125298669E+03      0.3063688325E+03      0.1770198789E+00      0.1577675257E+00
          0                 2           7             8    1     2      -0.1352893983E-01       1    1    1      -0.1100001711E+02      0.2981214778E+02      0.3063688325E+03     -0.1352893983E-01
          0                 3           5             8    1     2      -0.6834665916E-03       1    1    1      -0.5666498635E+00      0.1564164676E+01      0.2981214778E+02     -0.6834665916E-03
          0                 4           4             5    1     1      -0.3811136567E-04       1    1    1      -0.3543482185E-01      0.8987524167E-01      0.1564164676E+01     -0.3811136567E-04

    ------------------------------------------------
       NWT REQUIRED            4 OUTER ITERATIONS 
       AND A TOTAL OF         24 INNER ITERATIONS.
    ------------------------------------------------
                                                   Max.-Head-Change                        Max.-Flux-Residual
  Residual-Control   Outer-Iter.   Inner-Iter.     Column Row Layer    Max.-Head-Change    Column Row Layer    Max.-Flux-Residual            L2-New               L2-Old           Solver-Max-Delh
          0                 1           8             1    2     2       0.6742254952E-01       1    1    1       0.5387131180E+02      0.1349417899E+03      0.8987524167E-01      0.6742254952E-01
          0                 2           7             1    2     2      -0.5780165357E-02       1    1    1      -0.5263049133E+01      0.1310938508E+02      0.1349417899E+03     -0.5780165357E-02
          0                 3           5             1    1     1      -0.2939149733E-03       1    1    1      -0.2736308095E+00      0.6927881785E+00      0.1310938508E+02     -0.2939149733E-03
          0                 4           3             1    1     1      -0.1725030787E-04       1    1    1      -0.1868411992E-01      0.3724215103E-01      0.6927881785E+00     -0.1725030787E-04

    ------------------------------------------------
       NWT REQUIRED            4 OUTER ITERATIONS 
       AND A TOTAL OF         23 INNER ITERATIONS.
    ------------------------------------------------
                                                   Max.-Head-Change                        Max.-Flux-Residual
  Residual-Control   Outer-Iter.   Inner-Iter.     Column Row Layer    Max.-Head-Change    Column Row Layer    Max.-Flux-Residual            L2-New               L2-Old           Solver-Max-Delh
          0                 1           8             1    2     2       0.2738217039E-01       1    1    1       0.2210349287E+02      0.5311202017E+02      0.3724215103E-01      0.2738217039E-01
          0                 2           6             1    2     2      -0.2349844424E-02       1    1    1      -0.2164888773E+01      0.5170987380E+01      0.5311202017E+02     -0.2349844424E-02
          0                 3           4             1    2     2      -0.1184583568E-03       1    1    1      -0.1068391427E+00      0.2670188645E+00      0.5170987380E+01     -0.1184583568E-03
          0                 4           2             1    1     1      -0.1010046926E-04       1    1    1      -0.1318268629E-01      0.2639445370E-01      0.2670188645E+00     -0.1010046926E-04

    ------------------------------------------------
       NWT REQUIRED            4 OUTER ITERATIONS 
       AND A TOTAL OF         20 INNER ITERATIONS.
    ------------------------------------------------
                                                   Max.-Head-Change                        Max.-Flux-Residual
  Residual-Control   Outer-Iter.   Inner-Iter.     Column Row Layer    Max.-Head-Change    Column Row Layer    Max.-Flux-Residual            L2-New               L2-Old           Solver-Max-Delh
          0                 1           6             1    2     2       0.8656530840E-02       1    1    1       0.7116979098E+01      0.1625821779E+02      0.2639445370E-01      0.8656530840E-02
          0                 2           5             1    2     2      -0.7425214430E-03       1    1    1      -0.6889428677E+00      0.1580061355E+01      0.1625821779E+02     -0.7425214430E-03
          0                 3           3             1    2     2      -0.3708584330E-04       1    1    1      -0.3826700104E-01      0.7888029125E-01      0.1580061355E+01     -0.3708584330E-04

    ------------------------------------------------
       NWT REQUIRED            3 OUTER ITERATIONS 
       AND A TOTAL OF         14 INNER ITERATIONS.
    ------------------------------------------------
                                                   Max.-Head-Change                        Max.-Flux-Residual
  Residual-Control   Outer-Iter.   Inner-Iter.     Column Row Layer    Max.-Head-Change    Column Row Layer    Max.-Flux-Residual            L2-New               L2-Old           Solver-Max-Delh
          0                 1           6             9    1     1      -0.3591779282E-02       9    1    1      -0.2024521757E+01      0.5303525701E+01      0.7888029125E-01     -0.3591779282E-02
          0                 2           4             9    9     3      -0.3054730811E-03       7    1    1       0.2022545397E+00      0.5203661253E+00      0.5303525701E+01     -0.3054730811E-03
          0                 3           2             9    1     1       0.1516805305E-04       1    9    1      -0.1459859620E-01      0.3119672050E-01      0.5203661253E+00      0.1516805305E-04

    ------------------------------------------------
       NWT REQUIRED            3 OUTER ITERATIONS 
       AND A TOTAL OF         12 INNER ITERATIONS.
    ------------------------------------------------
                                                   Max.-Head-Change                        Max.-Flux-Residual
  Residual-Control   Outer-Iter.   Inner-Iter.     Column Row Layer    Max.-Head-Change    Column Row Layer    Max.-Flux-Residual            L2-New               L2-Old           Solver-Max-Delh
          0                 1           5             9    1     1      -0.3288787631E-02       8    1    1      -0.1788428951E+01      0.4679930141E+01      0.3119672050E-01     -0.3288787631E-02
          0                 2           4             9    1     1       0.2785293206E-03       8    1    1       0.1813854041E+00      0.4575064227E+00      0.4679930141E+01      0.2785293206E-03
          0                 3           2             9    1     2       0.1284203885E-04       9    1    1       0.9358338080E-02      0.2649105586E-01      0.4575064227E+00      0.1284203885E-04

    ------------------------------------------------
       NWT REQUIRED            3 OUTER ITERATIONS 
       AND A TOTAL OF         11 INNER ITERATIONS.
    ------------------------------------------------
                                                   Max.-Head-Change                        Max.-Flux-Residual
  Residual-Control   Outer-Iter.   Inner-Iter.     Column Row Layer    Max.-Head-Change    Column Row Layer    Max.-Flux-Residual            L2-New               L2-Old           Solver-Max-Delh
          0                 1           5             9    1     1      -0.2090112970E-02       9    1    1      -0.1104175363E+01      0.3336893356E+01      0.2649105586E-01     -0.2090112970E-02
          0                 2           4             9    1     2       0.1767630856E-03       8    1    1       0.1105803814E+00      0.3222576754E+00      0.3336893356E+01      0.1767630856E-03
          0                 3           2             8    1     1       0.1254464393E-04       5    1    1       0.8751632704E-02      0.2678084741E-01      0.3222576754E+00      0.1254464393E-04

    ------------------------------------------------
       NWT REQUIRED            3 OUTER ITERATIONS 
       AND A TOTAL OF         11 INNER ITERATIONS.
    ------------------------------------------------
                                                   Max.-Head-Change                        Max.-Flux-Residual
  Residual-Control   Outer-Iter.   Inner-Iter.     Column Row Layer    Max.-Head-Change    Column Row Layer    Max.-Flux-Residual            L2-New               L2-Old           Solver-Max-Delh
          0                 1           5             9    1     2      -0.1081568118E-02       1    1    1      -0.6240530522E+00      0.1949393734E+01      0.2678084741E-01     -0.1081568118E-02
          0                 2           4             8    1     2       0.9197726551E-04       1    1    1       0.5997897557E-01      0.1882282664E+00      0.1949393734E+01      0.9197726551E-04

    ------------------------------------------------
       NWT REQUIRED            2 OUTER ITERATIONS 
       AND A TOTAL OF          9 INNER ITERATIONS.
    ------------------------------------------------
                                                   Max.-Head-Change                        Max.-Flux-Residual
  Residual-Control   Outer-Iter.   Inner-Iter.     Column Row Layer    Max.-Head-Change    Column Row Layer    Max.-Flux-Residual            L2-New               L2-Old           Solver-Max-Delh
          0                 1           5             9    9     3      -0.5543883940E-03       1    9    1      -0.3737850206E+00      0.1060530878E+01      0.1882282664E+00     -0.5543883940E-03
          0                 2           4             9    9     3       0.4495835053E-04       1    9    1       0.3558893269E-01      0.9825460378E-01      0.1060530878E+01      0.4495835053E-04

    ------------------------------------------------
       NWT REQUIRED            2 OUTER ITERATIONS 
       AND A TOTAL OF          9 INNER ITERATIONS.
    ------------------------------------------------
                                                   Max.-Head-Change                        Max.-Flux-Residual
  Residual-Control   Outer-Iter.   Inner-Iter.     Column Row Layer    Max.-Head-Change    Column Row Layer    Max.-Flux-Residual            L2-New               L2-Old           Solver-Max-Delh
          0                 1           4             9    9     2      -0.3571095617E-03       1    9    1      -0.2233206904E+00      0.5612339775E+00      0.9825460378E-01     -0.3571095617E-03
          0                 2           3             9    9     2       0.2910840765E-04       1    9    1       0.2457107650E-01      0.5480434520E-01      0.5612339775E+00      0.2910840765E-04

    ------------------------------------------------
       NWT REQUIRED            2 OUTER ITERATIONS 
       AND A TOTAL OF          7 INNER ITERATIONS.
    ------------------------------------------------

 OUTPUT CONTROL FOR STRESS PERIOD      2   TIME STEP     2
    SAVE BUDGET
 UBDSV1 SAVING "         STORAGE" ON UNIT7011 AT TIME STEP    2, STRESS PERIOD   2
 UBDSV2 SAVING "   CONSTANT HEAD" ON UNIT7011 AT TIME STEP    2, STRESS PERIOD   2
 UBDSV1 SAVING "FLOW RIGHT FACE " ON UNIT7011 AT TIME STEP    2, STRESS PERIOD   2
 UBDSV1 SAVING "FLOW FRONT FACE " ON UNIT7011 AT TIME STEP    2, STRESS PERIOD   2
 UBDSV1 SAVING "FLOW LOWER FACE " ON UNIT7011 AT TIME STEP    2, STRESS PERIOD   2
 
 
 
 
 
 
 
 
 UBDSV3 SAVING "FARM  NET  RECH." ON UNIT7011 AT TIME STEP    2, STRESS PERIOD   2
 UBDSV4 SAVING " GHOST-NODE HEAD" ON UNIT7011 AT TIME STEP    2, STRESS PERIOD   2
1
  VOLUMETRIC BUDGET FOR ENTIRE MODEL AT END OF TIME STEP    2 IN STRESS PERIOD      2
  ------------------------------------------------------------------------------

     CUMULATIVE VOLUMES      L**3       RATES FOR THIS TIME STEP      L**3/T
     ------------------                 ------------------------

           IN:                                      IN:
           ---                                      ---
             STORAGE =       58216.0234               STORAGE =           0.0000
       CONSTANT HEAD =           0.0000         CONSTANT HEAD =           0.0000
          FARM WELLS =           0.0000            FARM WELLS =           0.0000
    FARM  NET  RECH. =      124859.8906      FARM  NET  RECH. =        2316.5837
     GHOST-NODE HEAD =     3154881.7500       GHOST-NODE HEAD =       12689.4170

            TOTAL IN =     3337957.7500              TOTAL IN =       15006.0010

          OUT:                                     OUT:
          ----                                     ----
             STORAGE =     3337929.2500               STORAGE =       15004.1240
       CONSTANT HEAD =           0.0000         CONSTANT HEAD =           0.0000
          FARM WELLS =           0.0000            FARM WELLS =           0.0000
    FARM  NET  RECH. =           0.0000      FARM  NET  RECH. =           0.0000
     GHOST-NODE HEAD =          28.2206       GHOST-NODE HEAD =           1.8554

           TOTAL OUT =     3337957.5000             TOTAL OUT =       15005.9795

            IN - OUT =           0.2500              IN - OUT =       2.1484E-02

 PERCENT DISCREPANCY =           0.00     PERCENT DISCREPANCY =           0.00






          TIME SUMMARY AT END OF TIME STEP     2 IN STRESS PERIOD      2
                    SECONDS     MINUTES      HOURS       DAYS        YEARS
                    -----------------------------------------------------------
   TIME STEP LENGTH 1.31414E+06  21902.      365.04      15.210     4.16427E-02
 STRESS PERIOD TIME 2.62829E+06  43805.      730.08      30.420     8.32854E-02
         TOTAL TIME 5.25658E+06  87610.      1460.2      60.840     0.16657    
1
1
  FLUX ACROSS PARENT-CHILD INTERFACE AT TIME STEP  2 IN STRESS PERIOD    2
  ------------------------------------------------------------------------
 G-N FLUX        PARENT        CHILD         DIFFERENCE      % DIFFERENCE
  RATE IN:      1.2690E+04    1.2689E+04     6.8066E-01        0.0054
 RATE OUT:      1.8543E+00    1.8554E+00    -1.1013E-03       -0.0594
1
                            STRESS PERIOD NO.      3, LENGTH =   30.42000    
                            -----------------------------------------------

                              NUMBER OF TIME STEPS =     2

                               MULTIPLIER FOR DELT =     1.000

                            INITIAL TIME STEP SIZE =   15.21000    

 Parameter:  WELLS1
 WELL NO. LAYER    ROW    COL  F-WELL ID    FARM ID         QMAX         QMAXRESET       LGRGRID         
 --------------------------------------------------------------------------------------------------------
       1      1      8      2          2          1      5.0000E+03              0              0
       2      1      8      8          3          1      5.0000E+03              0              0

 NUMBER OF ACTIVE FARM WELLS:        2

 FARM-ID  NUMBER OF WELLS PER FARM  TOTAL MAX.CAPACITY PER FARM
       1                         2                   10000.0000
       2                         0                       0.0000
       3                         0                       0.0000
       4                         0                       0.0000
       5                         0                       0.0000
       6                         0                       0.0000
       7                         0                       0.0000
       8                         0                       0.0000

Transpiratory and Evaporative Fractions of Crop Consumptive Use
    % Transpiration % Evap. for Precip. % Evap. for Irrig.
    2          0.860          0.140          0.140
    3          0.000          1.000          1.000

FRACTIONS OF IN-EFFICIENT LOSSES TO SW-RUNOFF FROM 
     PRECIPITATION:  IRRIGATION:
    2          0.400          0.300
    3          0.600          0.500
 
 SOLVING FOR HEAD 
                                                   Max.-Head-Change                        Max.-Flux-Residual
  Residual-Control   Outer-Iter.   Inner-Iter.     Column Row Layer    Max.-Head-Change    Column Row Layer    Max.-Flux-Residual            L2-New               L2-Old           Solver-Max-Delh
          0                 1          10             9    6     1       0.3106872007E+01       9    9    1       0.6600761550E+03      0.2331810948E+04      0.5480434520E-01      0.3106872007E+01
          0                 2           8             9    6     1      -0.2917833397E+00       7    9    1      -0.5949054819E+02      0.2269223984E+03      0.2331810948E+04     -0.2917833397E+00
          0                 3           7             9    6     1      -0.1493270916E-01       8    9    1      -0.2863584325E+01      0.1143604363E+02      0.2269223984E+03     -0.1493270916E-01
          0                 4           5             9    6     1      -0.7489073507E-03       8    9    1      -0.1476623564E+00      0.5804947375E+00      0.1143604363E+02     -0.7489073507E-03
          0                 5           3             9    6     1      -0.3771998712E-04       4    1    1      -0.9938248782E-02      0.3288664112E-01      0.5804947375E+00     -0.3771998712E-04

    ------------------------------------------------
       NWT REQUIRED            5 OUTER ITERATIONS 
       AND A TOTAL OF         33 INNER ITERATIONS.
    ------------------------------------------------
                                                   Max.-Head-Change                        Max.-Flux-Residual
  Residual-Control   Outer-Iter.   Inner-Iter.     Column Row Layer    Max.-Head-Change    Column Row Layer    Max.-Flux-Residual            L2-New               L2-Old           Solver-Max-Delh
          0                 1           9             9    9     1       0.6521724865E+00       9    9    1       0.3351220634E+03      0.1061263795E+04      0.3288664112E-01      0.6521724865E+00
          0                 2           8             9    9     1      -0.5639048144E-01       7    9    1      -0.3427907365E+02      0.1064481542E+03      0.1061263795E+04     -0.5639048144E-01
          0                 3           6             9    9     1      -0.2867039138E-02       9    9    1      -0.1739292455E+01      0.5431974661E+01      0.1064481542E+03     -0.2867039138E-02
          0                 4           4             9    9     1      -0.1420013625E-03       7    9    1      -0.8858632355E-01      0.2773445497E+00      0.5431974661E+01     -0.1420013625E-03
          0                 5           2             9    9     1      -0.8184383286E-05       9    9    1      -0.8431536218E-02      0.2094763467E-01      0.2773445497E+00     -0.8184383286E-05

    ------------------------------------------------
       NWT REQUIRED            5 OUTER ITERATIONS 
       AND A TOTAL OF         29 INNER ITERATIONS.
    ------------------------------------------------
                                                   Max.-Head-Change                        Max.-Flux-Residual
  Residual-Control   Outer-Iter.   Inner-Iter.     Column Row Layer    Max.-Head-Change    Column Row Layer    Max.-Flux-Residual            L2-New               L2-Old           Solver-Max-Delh
          0                 1           9             9    9     1       0.3553644308E+00       1    9    1       0.1934760520E+03      0.6723580255E+03      0.2094763467E-01      0.3553644308E+00
          0                 2           8             9    9     1      -0.3045097489E-01       1    9    1      -0.1903023506E+02      0.6679020695E+02      0.6723580255E+03     -0.3045097489E-01
          0                 3           6             9    9     1      -0.1553906708E-02       1    9    1      -0.9771188172E+00      0.3420738130E+01      0.6679020695E+02     -0.1553906708E-02
          0                 4           4             9    9     1      -0.7709535758E-04       1    9    1      -0.5249758274E-01      0.1755020213E+00      0.3420738130E+01     -0.7709535758E-04

    ------------------------------------------------
       NWT REQUIRED            4 OUTER ITERATIONS 
       AND A TOTAL OF         27 INNER ITERATIONS.
    ------------------------------------------------
                                                   Max.-Head-Change                        Max.-Flux-Residual
  Residual-Control   Outer-Iter.   Inner-Iter.     Column Row Layer    Max.-Head-Change    Column Row Layer    Max.-Flux-Residual            L2-New               L2-Old           Solver-Max-Delh
          0                 1           8             9    1     2       0.1750640157E+00       1    1    1       0.1112920010E+03      0.3454578302E+03      0.1755020213E+00      0.1750640157E+00
          0                 2           7             9    1     2      -0.1507954733E-01       1    1    1      -0.1097519045E+02      0.3412613511E+02      0.3454578302E+03     -0.1507954733E-01
          0                 3           5             9    1     2      -0.7571073297E-03       1    1    1      -0.5634968342E+00      0.1751345657E+01      0.3412613511E+02     -0.7571073297E-03
          0                 4           3             8    1     2      -0.3711277531E-04       1    1    1      -0.3305218718E-01      0.9007535697E-01      0.1751345657E+01     -0.3711277531E-04

    ------------------------------------------------
       NWT REQUIRED            4 OUTER ITERATIONS 
       AND A TOTAL OF         23 INNER ITERATIONS.
    ------------------------------------------------
                                                   Max.-Head-Change                        Max.-Flux-Residual
  Residual-Control   Outer-Iter.   Inner-Iter.     Column Row Layer    Max.-Head-Change    Column Row Layer    Max.-Flux-Residual            L2-New               L2-Old           Solver-Max-Delh
          0                 1           8             8    1     2       0.8032074472E-01       1    1    1       0.5891074235E+02      0.1592303964E+03      0.9007535697E-01      0.8032074472E-01
          0                 2           7             8    1     2      -0.6917998647E-02       1    1    1      -0.5807200112E+01      0.1568399234E+02      0.1592303964E+03     -0.6917998647E-02
          0                 3           5             8    1     2      -0.3474267822E-03       1    1    1      -0.3033061933E+00      0.8083063708E+00      0.1568399234E+02     -0.3474267822E-03
          0                 4           3             9    1     1      -0.1934082551E-04       1    1    1      -0.1592580241E-01      0.4351475855E-01      0.8083063708E+00     -0.1934082551E-04

    ------------------------------------------------
       NWT REQUIRED            4 OUTER ITERATIONS 
       AND A TOTAL OF         23 INNER ITERATIONS.
    ------------------------------------------------
                                                   Max.-Head-Change                        Max.-Flux-Residual
  Residual-Control   Outer-Iter.   Inner-Iter.     Column Row Layer    Max.-Head-Change    Column Row Layer    Max.-Flux-Residual            L2-New               L2-Old           Solver-Max-Delh
          0                 1           8             1    2     2       0.3468660570E-01       1    1    1       0.2730095641E+02      0.6838232400E+02      0.4351475855E-01      0.3468660570E-01
          0                 2           6             1    2     2      -0.2982522877E-02       1    1    1      -0.2692611002E+01      0.6729943113E+01      0.6838232400E+02     -0.2982522877E-02
          0                 3           4             1    3     2      -0.1509568924E-03       1    1    1      -0.1317749179E+00      0.3451224639E+00      0.6729943113E+01     -0.1509568924E-03
          0                 4           2             1    1     1      -0.8860147747E-05       1    1    1      -0.1404489495E-01      0.2493419614E-01      0.3451224639E+00     -0.8860147747E-05

    ------------------------------------------------
       NWT REQUIRED            4 OUTER ITERATIONS 
       AND A TOTAL OF         20 INNER ITERATIONS.
    ------------------------------------------------
                                                   Max.-Head-Change                        Max.-Flux-Residual
  Residual-Control   Outer-Iter.   Inner-Iter.     Column Row Layer    Max.-Head-Change    Column Row Layer    Max.-Flux-Residual            L2-New               L2-Old           Solver-Max-Delh
          0                 1           7             1    2     2       0.1350003212E-01       1    1    1       0.1074072338E+02      0.2604665467E+02      0.2493419614E-01      0.1350003212E-01
          0                 2           5             1    2     2      -0.1160301791E-02       1    1    1      -0.1063662699E+01      0.2558794586E+01      0.2604665467E+02     -0.1160301791E-02
          0                 3           4             1    2     2      -0.5898195432E-04       1    1    1      -0.5132446287E-01      0.1351505531E+00      0.2558794586E+01     -0.5898195432E-04

    ------------------------------------------------
       NWT REQUIRED            3 OUTER ITERATIONS 
       AND A TOTAL OF         16 INNER ITERATIONS.
    ------------------------------------------------
                                                   Max.-Head-Change                        Max.-Flux-Residual
  Residual-Control   Outer-Iter.   Inner-Iter.     Column Row Layer    Max.-Head-Change    Column Row Layer    Max.-Flux-Residual            L2-New               L2-Old           Solver-Max-Delh
          0                 1           6             1    9     2       0.4073344339E-02       1    9    1       0.3225826680E+01      0.8057767882E+01      0.1351505531E+00      0.4073344339E-02
          0                 2           5             1    9     2      -0.3510100221E-03       1    1    1      -0.3192083727E+00      0.7989374931E+00      0.8057767882E+01     -0.3510100221E-03
          0                 3           2             8    9     1       0.1773502249E-04       8    9    1       0.1804953383E-01      0.4392395020E-01      0.7989374931E+00      0.1773502249E-04

    ------------------------------------------------
       NWT REQUIRED            3 OUTER ITERATIONS 
       AND A TOTAL OF         13 INNER ITERATIONS.
    ------------------------------------------------
                                                   Max.-Head-Change                        Max.-Flux-Residual
  Residual-Control   Outer-Iter.   Inner-Iter.     Column Row Layer    Max.-Head-Change    Column Row Layer    Max.-Flux-Residual            L2-New               L2-Old           Solver-Max-Delh
          0                 1           5             9    1     1      -0.2526824391E-02       9    1    1      -0.1446349808E+01      0.3402450009E+01      0.4392395020E-01     -0.2526824391E-02
          0                 2           4             9    1     1       0.2152552287E-03       7    1    1       0.1501699170E+00      0.3403467076E+00      0.3402450009E+01      0.2152552287E-03
          0                 3           2             9    1     1       0.1148278167E-04       8    1    1       0.8956859820E-02      0.1843361322E-01      0.3403467076E+00      0.1148278167E-04

    ------------------------------------------------
       NWT REQUIRED            3 OUTER ITERATIONS 
       AND A TOTAL OF         11 INNER ITERATIONS.
    ------------------------------------------------
                                                   Max.-Head-Change                        Max.-Flux-Residual
  Residual-Control   Outer-Iter.   Inner-Iter.     Column Row Layer    Max.-Head-Change    Column Row Layer    Max.-Flux-Residual            L2-New               L2-Old           Solver-Max-Delh
          0                 1           5             9    1     1      -0.1955428684E-02       8    1    1      -0.1088304069E+01      0.2736981883E+01      0.1843361322E-01     -0.1955428684E-02
          0                 2           4             9    1     1       0.1635669544E-03       7    1    1       0.1093672577E+00      0.2656731647E+00      0.2736981883E+01      0.1635669544E-03
          0                 3           2             9    1     1       0.1226134332E-04       4    1    1       0.9080955642E-02      0.2247891785E-01      0.2656731647E+00      0.1226134332E-04

    ------------------------------------------------
       NWT REQUIRED            3 OUTER ITERATIONS 
       AND A TOTAL OF         11 INNER ITERATIONS.
    ------------------------------------------------
                                                   Max.-Head-Change                        Max.-Flux-Residual
  Residual-Control   Outer-Iter.   Inner-Iter.     Column Row Layer    Max.-Head-Change    Column Row Layer    Max.-Flux-Residual            L2-New               L2-Old           Solver-Max-Delh
          0                 1           5             9    1     1      -0.1152870579E-02       9    1    1      -0.6207734471E+00      0.1840543630E+01      0.2247891785E-01     -0.1152870579E-02
          0                 2           4             9    1     1       0.9972502208E-04       9    1    1       0.6598674518E-01      0.1794820758E+00      0.1840543630E+01      0.9972502208E-04

    ------------------------------------------------
       NWT REQUIRED            2 OUTER ITERATIONS 
       AND A TOTAL OF          9 INNER ITERATIONS.
    ------------------------------------------------
                                                   Max.-Head-Change                        Max.-Flux-Residual
  Residual-Control   Outer-Iter.   Inner-Iter.     Column Row Layer    Max.-Head-Change    Column Row Layer    Max.-Flux-Residual            L2-New               L2-Old           Solver-Max-Delh
          0                 1           5             9    1     2      -0.5543906218E-03       1    1    1      -0.3313716860E+00      0.1032648617E+01      0.1794820758E+00     -0.5543906218E-03
          0                 2           4             9    1     1       0.4872002750E-04       9    1    1       0.2964627033E-01      0.9829806551E-01      0.1032648617E+01      0.4872002750E-04

    ------------------------------------------------
       NWT REQUIRED            2 OUTER ITERATIONS 
       AND A TOTAL OF          9 INNER ITERATIONS.
    ------------------------------------------------
                                                   Max.-Head-Change                        Max.-Flux-Residual
  Residual-Control   Outer-Iter.   Inner-Iter.     Column Row Layer    Max.-Head-Change    Column Row Layer    Max.-Flux-Residual            L2-New               L2-Old           Solver-Max-Delh
          0                 1           4             9    9     3      -0.2975216739E-03       1    9    1      -0.2216178484E+00      0.5612725562E+00      0.9829806551E-01     -0.2975216739E-03
          0                 2           3             1    5     2       0.2416992595E-04       1    1    1       0.1836106717E-01      0.5517434099E-01      0.5612725562E+00      0.2416992595E-04

    ------------------------------------------------
       NWT REQUIRED            2 OUTER ITERATIONS 
       AND A TOTAL OF          7 INNER ITERATIONS.
    ------------------------------------------------

 OUTPUT CONTROL FOR STRESS PERIOD      3   TIME STEP     1
    SAVE BUDGET
 UBDSV1 SAVING "         STORAGE" ON UNIT7011 AT TIME STEP    1, STRESS PERIOD   3
 UBDSV2 SAVING "   CONSTANT HEAD" ON UNIT7011 AT TIME STEP    1, STRESS PERIOD   3
 UBDSV1 SAVING "FLOW RIGHT FACE " ON UNIT7011 AT TIME STEP    1, STRESS PERIOD   3
 UBDSV1 SAVING "FLOW FRONT FACE " ON UNIT7011 AT TIME STEP    1, STRESS PERIOD   3
 UBDSV1 SAVING "FLOW LOWER FACE " ON UNIT7011 AT TIME STEP    1, STRESS PERIOD   3
 
 
 
 
 
 
 
 
 UBDSV3 SAVING "FARM  NET  RECH." ON UNIT7011 AT TIME STEP    1, STRESS PERIOD   3
 UBDSV4 SAVING " GHOST-NODE HEAD" ON UNIT7011 AT TIME STEP    1, STRESS PERIOD   3
1
  FLUX ACROSS PARENT-CHILD INTERFACE AT TIME STEP  1 IN STRESS PERIOD    3
  ------------------------------------------------------------------------
 G-N FLUX        PARENT        CHILD         DIFFERENCE      % DIFFERENCE
  RATE IN:      7.5438E+03    7.5437E+03     9.8633E-02        0.0013
 RATE OUT:      9.7076E+01    9.7261E+01    -1.8470E-01       -0.1901
 
 SOLVING FOR HEAD 
                                                   Max.-Head-Change                        Max.-Flux-Residual
  Residual-Control   Outer-Iter.   Inner-Iter.     Column Row Layer    Max.-Head-Change    Column Row Layer    Max.-Flux-Residual            L2-New               L2-Old           Solver-Max-Delh
          0                 1           9             9    6     1       0.1835396546E+01       9    9    1       0.4662430338E+03      0.1674907576E+04      0.5517434099E-01      0.1835396546E+01
          0                 2           8             9    6     1      -0.1657468548E+00       8    9    1      -0.4441945754E+02      0.1633475394E+03      0.1674907576E+04     -0.1657468548E+00
          0                 3           7             9    6     1      -0.8381222396E-02       9    9    1      -0.2207422205E+01      0.8206055967E+01      0.1633475394E+03     -0.8381222396E-02
          0                 4           4             9    6     1      -0.4179197471E-03       9    9    1      -0.1105389997E+00      0.4139451279E+00      0.8206055967E+01     -0.4179197471E-03
          0                 5           3             9    6     1      -0.2099315682E-04       8    9    1      -0.1047542179E-01      0.2664605260E-01      0.4139451279E+00     -0.2099315682E-04

    ------------------------------------------------
       NWT REQUIRED            5 OUTER ITERATIONS 
       AND A TOTAL OF         31 INNER ITERATIONS.
    ------------------------------------------------
                                                   Max.-Head-Change                        Max.-Flux-Residual
  Residual-Control   Outer-Iter.   Inner-Iter.     Column Row Layer    Max.-Head-Change    Column Row Layer    Max.-Flux-Residual            L2-New               L2-Old           Solver-Max-Delh
          0                 1           9             9    9     1       0.4006905622E+00       1    9    1       0.2173309775E+03      0.7334399392E+03      0.2664605260E-01      0.4006905622E+00
          0                 2           8             9    9     1      -0.3460372718E-01       1    9    1      -0.2150410189E+02      0.7343303855E+02      0.7334399392E+03     -0.3460372718E-01
          0                 3           6             9    9     1      -0.1747303524E-02       1    9    1      -0.1103632810E+01      0.3712937122E+01      0.7343303855E+02     -0.1747303524E-02
          0                 4           4             9    9     1      -0.8477289055E-04       1    1    1      -0.5335600127E-01      0.1860991169E+00      0.3712937122E+01     -0.8477289055E-04

    ------------------------------------------------
       NWT REQUIRED            4 OUTER ITERATIONS 
       AND A TOTAL OF         27 INNER ITERATIONS.
    ------------------------------------------------
                                                   Max.-Head-Change                        Max.-Flux-Residual
  Residual-Control   Outer-Iter.   Inner-Iter.     Column Row Layer    Max.-Head-Change    Column Row Layer    Max.-Flux-Residual            L2-New               L2-Old           Solver-Max-Delh
          0                 1           9             9    1     2       0.2050190029E+00       1    9    1       0.1336654143E+03      0.4382652154E+03      0.1860991169E+00      0.2050190029E+00
          0                 2           7             9    1     2      -0.1769931634E-01       1    9    1      -0.1321074829E+02      0.4364695689E+02      0.4382652154E+03     -0.1769931634E-01
          0                 3           5             9    1     2      -0.8835780157E-03       1    9    1      -0.6739107432E+00      0.2207619537E+01      0.4364695689E+02     -0.8835780157E-03
          0                 4           4             8    9     1      -0.4723983362E-04       1    9    1      -0.3607544443E-01      0.1199325890E+00      0.2207619537E+01     -0.4723983362E-04

    ------------------------------------------------
       NWT REQUIRED            4 OUTER ITERATIONS 
       AND A TOTAL OF         25 INNER ITERATIONS.
    ------------------------------------------------
                                                   Max.-Head-Change                        Max.-Flux-Residual
  Residual-Control   Outer-Iter.   Inner-Iter.     Column Row Layer    Max.-Head-Change    Column Row Layer    Max.-Flux-Residual            L2-New               L2-Old           Solver-Max-Delh
          0                 1           8             9    1     2       0.1079282459E+00       1    1    1       0.7494925886E+02      0.2198403042E+03      0.1199325890E+00      0.1079282459E+00
          0                 2           7             9    1     2      -0.9316336549E-02       1    1    1      -0.7433360539E+01      0.2182530917E+02      0.2198403042E+03     -0.9316336549E-02
          0                 3           5             9    1     2      -0.4655285809E-03       1    1    1      -0.3705197651E+00      0.1105358880E+01      0.2182530917E+02     -0.4655285809E-03
          0                 4           3             9    1     1      -0.2367393626E-04       1    1    1      -0.2120870631E-01      0.5813711107E-01      0.1105358880E+01     -0.2367393626E-04

    ------------------------------------------------
       NWT REQUIRED            4 OUTER ITERATIONS 
       AND A TOTAL OF         23 INNER ITERATIONS.
    ------------------------------------------------
                                                   Max.-Head-Change                        Max.-Flux-Residual
  Residual-Control   Outer-Iter.   Inner-Iter.     Column Row Layer    Max.-Head-Change    Column Row Layer    Max.-Flux-Residual            L2-New               L2-Old           Solver-Max-Delh
          0                 1           8             1    3     2       0.4723289231E-01       1    1    1       0.3804341811E+02      0.9919533299E+02      0.5813711107E-01      0.4723289231E-01
          0                 2           7             8    1     2      -0.4075496815E-02       1    1    1      -0.3766473463E+01      0.9828120281E+01      0.9919533299E+02     -0.4075496815E-02
          0                 3           4             1    3     2      -0.2048852322E-03       1    1    1      -0.1929105083E+00      0.5036841362E+00      0.9828120281E+01     -0.2048852322E-03
          0                 4           3             8    1     1      -0.1206672514E-04       1    9    1      -0.1185184758E-01      0.3080586660E-01      0.5036841362E+00     -0.1206672514E-04

    ------------------------------------------------
       NWT REQUIRED            4 OUTER ITERATIONS 
       AND A TOTAL OF         22 INNER ITERATIONS.
    ------------------------------------------------
                                                   Max.-Head-Change                        Max.-Flux-Residual
  Residual-Control   Outer-Iter.   Inner-Iter.     Column Row Layer    Max.-Head-Change    Column Row Layer    Max.-Flux-Residual            L2-New               L2-Old           Solver-Max-Delh
          0                 1           7             1    2     2       0.2084616698E-01       1    1    1       0.1684932169E+02      0.4067144876E+02      0.3080586660E-01      0.2084616698E-01
          0                 2           6             1    2     2      -0.1794183674E-02       1    1    1      -0.1663116811E+01      0.4011671650E+01      0.4067144876E+02     -0.1794183674E-02
          0                 3           4             1    2     2      -0.9063579986E-04       1    1    1      -0.8258307225E-01      0.2106330473E+00      0.4011671650E+01     -0.9063579986E-04

    ------------------------------------------------
       NWT REQUIRED            3 OUTER ITERATIONS 
       AND A TOTAL OF         17 INNER ITERATIONS.
    ------------------------------------------------
                                                   Max.-Head-Change                        Max.-Flux-Residual
  Residual-Control   Outer-Iter.   Inner-Iter.     Column Row Layer    Max.-Head-Change    Column Row Layer    Max.-Flux-Residual            L2-New               L2-Old           Solver-Max-Delh
          0                 1           7             1    2     2       0.7611941205E-02       1    1    1       0.6231993560E+01      0.1426390390E+02      0.2106330473E+00      0.7611941205E-02
          0                 2           5             1    2     2      -0.6556598427E-03       1    1    1      -0.6207713841E+00      0.1410198437E+01      0.1426390390E+02     -0.6556598427E-03
          0                 3           3             1    1     1      -0.3481220412E-04       1    1    1      -0.3413310531E-01      0.7612272735E-01      0.1410198437E+01     -0.3481220412E-04

    ------------------------------------------------
       NWT REQUIRED            3 OUTER ITERATIONS 
       AND A TOTAL OF         15 INNER ITERATIONS.
    ------------------------------------------------
                                                   Max.-Head-Change                        Max.-Flux-Residual
  Residual-Control   Outer-Iter.   Inner-Iter.     Column Row Layer    Max.-Head-Change    Column Row Layer    Max.-Flux-Residual            L2-New               L2-Old           Solver-Max-Delh
          0                 1           5             1    9     2       0.2142614545E-02       1    9    1       0.1638032284E+01      0.4139169842E+01      0.7612272735E-01      0.2142614545E-02
          0                 2           4             1    9     2      -0.1848183507E-03       1    9    1      -0.1618510689E+00      0.4086221392E+00      0.4139169842E+01     -0.1848183507E-03
          0                 3           2             9    1     1       0.1059938764E-04       1    1    1      -0.1411851228E-01      0.2810907711E-01      0.4086221392E+00      0.1059938764E-04

    ------------------------------------------------
       NWT REQUIRED            3 OUTER ITERATIONS 
       AND A TOTAL OF         11 INNER ITERATIONS.
    ------------------------------------------------
                                                   Max.-Head-Change                        Max.-Flux-Residual
  Residual-Control   Outer-Iter.   Inner-Iter.     Column Row Layer    Max.-Head-Change    Column Row Layer    Max.-Flux-Residual            L2-New               L2-Old           Solver-Max-Delh
          0                 1           5             9    1     1      -0.1818714096E-02       9    1    1      -0.1035883452E+01      0.2358707821E+01      0.2810907711E-01     -0.1818714096E-02
          0                 2           4             9    1     1       0.1551650875E-03       8    1    1       0.1053555231E+00      0.2359433336E+00      0.2358707821E+01      0.1551650875E-03
          0                 3           2             9    1     1       0.1067941180E-04       7    1    1       0.9009400266E-02      0.1679881213E-01      0.2359433336E+00      0.1067941180E-04

    ------------------------------------------------
       NWT REQUIRED            3 OUTER ITERATIONS 
       AND A TOTAL OF         11 INNER ITERATIONS.
    ------------------------------------------------
                                                   Max.-Head-Change                        Max.-Flux-Residual
  Residual-Control   Outer-Iter.   Inner-Iter.     Column Row Layer    Max.-Head-Change    Column Row Layer    Max.-Flux-Residual            L2-New               L2-Old           Solver-Max-Delh
          0                 1           5             9    1     1      -0.1301389299E-02       8    1    1      -0.7289441334E+00      0.1927262497E+01      0.1679881213E-01     -0.1301389299E-02
          0                 2           4             9    1     1       0.1164118553E-03       8    1    1       0.7611679204E-01      0.1941317580E+00      0.1927262497E+01      0.1164118553E-03
          0                 3           2             1    2     1       0.7344756619E-05       7    1    1       0.8348424337E-02      0.1831950740E-01      0.1941317580E+00      0.7344756619E-05

    ------------------------------------------------
       NWT REQUIRED            3 OUTER ITERATIONS 
       AND A TOTAL OF         11 INNER ITERATIONS.
    ------------------------------------------------
                                                   Max.-Head-Change                        Max.-Flux-Residual
  Residual-Control   Outer-Iter.   Inner-Iter.     Column Row Layer    Max.-Head-Change    Column Row Layer    Max.-Flux-Residual            L2-New               L2-Old           Solver-Max-Delh
          0                 1           5             9    1     2      -0.7240290978E-03       8    1    1      -0.3858131613E+00      0.1244408984E+01      0.1831950740E-01     -0.7240290978E-03
          0                 2           4             8    1     1       0.6405402700E-04       8    1    1       0.4570652649E-01      0.1216089370E+00      0.1244408984E+01      0.6405402700E-04

    ------------------------------------------------
       NWT REQUIRED            2 OUTER ITERATIONS 
       AND A TOTAL OF          9 INNER ITERATIONS.
    ------------------------------------------------
                                                   Max.-Head-Change                        Max.-Flux-Residual
  Residual-Control   Outer-Iter.   Inner-Iter.     Column Row Layer    Max.-Head-Change    Column Row Layer    Max.-Flux-Residual            L2-New               L2-Old           Solver-Max-Delh
          0                 1           5             1    5     2      -0.3627472945E-03       1    9    1      -0.2317394601E+00      0.7117033271E+00      0.1216089370E+00     -0.3627472945E-03
          0                 2           3             1    4     1       0.3443234617E-04       1    1    1       0.2777836786E-01      0.7996636293E-01      0.7117033271E+00      0.3443234617E-04

    ------------------------------------------------
       NWT REQUIRED            2 OUTER ITERATIONS 
       AND A TOTAL OF          8 INNER ITERATIONS.
    ------------------------------------------------

 OUTPUT CONTROL FOR STRESS PERIOD      3   TIME STEP     2
    PRINT BUDGET
    SAVE HEAD FOR ALL LAYERS
    SAVE BUDGET
 UBDSV1 SAVING "         STORAGE" ON UNIT7011 AT TIME STEP    2, STRESS PERIOD   3
 UBDSV2 SAVING "   CONSTANT HEAD" ON UNIT7011 AT TIME STEP    2, STRESS PERIOD   3
 UBDSV1 SAVING "FLOW RIGHT FACE " ON UNIT7011 AT TIME STEP    2, STRESS PERIOD   3
 UBDSV1 SAVING "FLOW FRONT FACE " ON UNIT7011 AT TIME STEP    2, STRESS PERIOD   3
 UBDSV1 SAVING "FLOW LOWER FACE " ON UNIT7011 AT TIME STEP    2, STRESS PERIOD   3
 
 
 
 
 
 
 
 
 UBDSV3 SAVING "FARM  NET  RECH." ON UNIT7011 AT TIME STEP    2, STRESS PERIOD   3
 UBDSV4 SAVING " GHOST-NODE HEAD" ON UNIT7011 AT TIME STEP    2, STRESS PERIOD   3

 HEAD WILL BE SAVED ON UNIT 2211 AT END OF TIME STEP     2, STRESS PERIOD      3
1
  VOLUMETRIC BUDGET FOR ENTIRE MODEL AT END OF TIME STEP    2 IN STRESS PERIOD      3
  ------------------------------------------------------------------------------

     CUMULATIVE VOLUMES      L**3       RATES FOR THIS TIME STEP      L**3/T
     ------------------                 ------------------------

           IN:                                      IN:
           ---                                      ---
             STORAGE =       58216.0234               STORAGE =           0.0000
       CONSTANT HEAD =           0.0000         CONSTANT HEAD =           0.0000
          FARM WELLS =           0.0000            FARM WELLS =           0.0000
    FARM  NET  RECH. =      146889.6094      FARM  NET  RECH. =         724.1855
     GHOST-NODE HEAD =     3347258.0000       GHOST-NODE HEAD =        5104.2949

            TOTAL IN =     3552363.5000              TOTAL IN =        5828.4805

          OUT:                                     OUT:
          ----                                     ----
             STORAGE =     3543165.2500               STORAGE =        5322.8687
       CONSTANT HEAD =           0.0000         CONSTANT HEAD =           0.0000
          FARM WELLS =           0.0000            FARM WELLS =           0.0000
    FARM  NET  RECH. =           0.0000      FARM  NET  RECH. =           0.0000
     GHOST-NODE HEAD =        9197.6025       GHOST-NODE HEAD =         505.5916

           TOTAL OUT =     3552362.7500             TOTAL OUT =        5828.4604

            IN - OUT =           0.7500              IN - OUT =       2.0020E-02

 PERCENT DISCREPANCY =           0.00     PERCENT DISCREPANCY =           0.00






          TIME SUMMARY AT END OF TIME STEP     2 IN STRESS PERIOD      3
                    SECONDS     MINUTES      HOURS       DAYS        YEARS
                    -----------------------------------------------------------
   TIME STEP LENGTH 1.31414E+06  21902.      365.04      15.210     4.16427E-02
 STRESS PERIOD TIME 2.62829E+06  43805.      730.08      30.420     8.32854E-02
         TOTAL TIME 7.88486E+06 1.31414E+05  2190.2      91.260     0.24986    
1
1
  FLUX ACROSS PARENT-CHILD INTERFACE AT TIME STEP  2 IN STRESS PERIOD    3
  ------------------------------------------------------------------------
 G-N FLUX        PARENT        CHILD         DIFFERENCE      % DIFFERENCE
  RATE IN:      5.1037E+03    5.1043E+03    -6.2256E-01       -0.0122
 RATE OUT:      5.0513E+02    5.0559E+02    -4.6213E-01       -0.0914
1
                            STRESS PERIOD NO.      4, LENGTH =   30.42000    
                            -----------------------------------------------

                              NUMBER OF TIME STEPS =     2

                               MULTIPLIER FOR DELT =     1.000

                            INITIAL TIME STEP SIZE =   15.21000    

 Parameter:  WELLS1
 WELL NO. LAYER    ROW    COL  F-WELL ID    FARM ID         QMAX         QMAXRESET       LGRGRID         
 --------------------------------------------------------------------------------------------------------
       1      1      8      2          2          1      5.0000E+03              0              0
       2      1      8      8          3          1      5.0000E+03              0              0

 NUMBER OF ACTIVE FARM WELLS:        2

 FARM-ID  NUMBER OF WELLS PER FARM  TOTAL MAX.CAPACITY PER FARM
       1                         2                   10000.0000
       2                         0                       0.0000
       3                         0                       0.0000
       4                         0                       0.0000
       5                         0                       0.0000
       6                         0                       0.0000
       7                         0                       0.0000
       8                         0                       0.0000

Transpiratory and Evaporative Fractions of Crop Consumptive Use
    % Transpiration % Evap. for Precip. % Evap. for Irrig.
    2          0.908          0.092          0.092
    3          0.000          1.000          1.000

FRACTIONS OF IN-EFFICIENT LOSSES TO SW-RUNOFF FROM 
     PRECIPITATION:  IRRIGATION:
    2          0.400          0.300
    3          0.600          0.500
 
 SOLVING FOR HEAD 
                                                   Max.-Head-Change                        Max.-Flux-Residual
  Residual-Control   Outer-Iter.   Inner-Iter.     Column Row Layer    Max.-Head-Change    Column Row Layer    Max.-Flux-Residual            L2-New               L2-Old           Solver-Max-Delh
          0                 1           9             8    8     1      -0.1129371143E+01       8    8    1      -0.2715111952E+04      0.4062067211E+04      0.7996636293E-01     -0.1129371143E+01
          0                 2           8             8    8     1       0.9613239424E-01       8    8    1       0.2619350708E+03      0.3932069826E+03      0.4062067211E+04      0.9613239424E-01
          0                 3           6             8    8     1       0.4785943045E-02       8    8    1       0.1304690711E+02      0.1966934537E+02      0.3932069826E+03      0.4785943045E-02
          0                 4           4             8    8     1       0.2379068568E-03       8    8    1       0.6520102762E+00      0.9854450069E+00      0.1966934537E+02      0.2379068568E-03
          0                 5           3             8    8     1       0.1311607146E-04       8    8    1       0.3259501280E-01      0.5170720499E-01      0.9854450069E+00      0.1311607146E-04

    ------------------------------------------------
       NWT REQUIRED            5 OUTER ITERATIONS 
       AND A TOTAL OF         30 INNER ITERATIONS.
    ------------------------------------------------
                                                   Max.-Head-Change                        Max.-Flux-Residual
  Residual-Control   Outer-Iter.   Inner-Iter.     Column Row Layer    Max.-Head-Change    Column Row Layer    Max.-Flux-Residual            L2-New               L2-Old           Solver-Max-Delh
          0                 1           9             8    8     1       0.1385252636E+01       8    8    1       0.1814568797E+04      0.2871757004E+04      0.5170720499E-01      0.1385252636E+01
          0                 2           7             8    8     1      -0.9939998684E-01       8    8    1      -0.1632088704E+03      0.2595422114E+03      0.2871757004E+04     -0.9939998684E-01
          0                 3           6             8    8     1      -0.5044413881E-02       8    8    1      -0.8258366188E+01      0.1347536538E+02      0.2595422114E+03     -0.5044413881E-02
          0                 4           4             8    8     1      -0.2562030941E-03       8    8    1      -0.4130496769E+00      0.6708724227E+00      0.1347536538E+02     -0.2562030941E-03
          0                 5           2             3    1     1       0.1006386432E-04       8    8    1      -0.2071779239E-01      0.3859569040E-01      0.6708724227E+00      0.1006386432E-04

    ------------------------------------------------
       NWT REQUIRED            5 OUTER ITERATIONS 
       AND A TOTAL OF         28 INNER ITERATIONS.
    ------------------------------------------------
                                                   Max.-Head-Change                        Max.-Flux-Residual
  Residual-Control   Outer-Iter.   Inner-Iter.     Column Row Layer    Max.-Head-Change    Column Row Layer    Max.-Flux-Residual            L2-New               L2-Old           Solver-Max-Delh
          0                 1           8             1    1     1      -0.2623333325E+00       1    1    1      -0.2447632305E+03      0.3923328272E+03      0.3859569040E-01     -0.2623333325E+00
          0                 2           7             1    1     1       0.2272396858E-01       1    1    1       0.2444923427E+02      0.3938580139E+02      0.3923328272E+03      0.2272396858E-01
          0                 3           5             1    1     1       0.1118879292E-02       1    1    1       0.1207008013E+01      0.1929604031E+01      0.3938580139E+02      0.1118879292E-02
          0                 4           3             1    1     1       0.5683022437E-04       1    1    1       0.6323920307E-01      0.9836657434E-01      0.1929604031E+01      0.5683022437E-04

    ------------------------------------------------
       NWT REQUIRED            4 OUTER ITERATIONS 
       AND A TOTAL OF         23 INNER ITERATIONS.
    ------------------------------------------------
                                                   Max.-Head-Change                        Max.-Flux-Residual
  Residual-Control   Outer-Iter.   Inner-Iter.     Column Row Layer    Max.-Head-Change    Column Row Layer    Max.-Flux-Residual            L2-New               L2-Old           Solver-Max-Delh
          0                 1           8             1    1     1      -0.5384872215E-01       1    1    1      -0.5737765345E+02      0.1070450547E+03      0.9836657434E-01     -0.5384872215E-01
          0                 2           6             1    1     1       0.4680002071E-02       1    1    1       0.5766630910E+01      0.1068725772E+02      0.1070450547E+03      0.4680002071E-02
          0                 3           4             1    1     1       0.2356735107E-03       1    1    1       0.2915521176E+00      0.5386309044E+00      0.1068725772E+02      0.2356735107E-03
          0                 4           3             9    1     3      -0.1051395138E-04       1    4    1      -0.1058115740E-01      0.3264960798E-01      0.5386309044E+00     -0.1051395138E-04

    ------------------------------------------------
       NWT REQUIRED            4 OUTER ITERATIONS 
       AND A TOTAL OF         21 INNER ITERATIONS.
    ------------------------------------------------
                                                   Max.-Head-Change                        Max.-Flux-Residual
  Residual-Control   Outer-Iter.   Inner-Iter.     Column Row Layer    Max.-Head-Change    Column Row Layer    Max.-Flux-Residual            L2-New               L2-Old           Solver-Max-Delh
          0                 1           8             9    1     2       0.4883608167E-01       1    9    1       0.2546644326E+02      0.7270320131E+02      0.3264960798E-01      0.4883608167E-01
          0                 2           6             9    1     2      -0.4235097451E-02       1    9    1      -0.2518992450E+01      0.7312947620E+01      0.7270320131E+02     -0.4235097451E-02
          0                 3           4             9    1     2      -0.2099460360E-03       1    9    1      -0.1296116602E+00      0.3582142400E+00      0.7312947620E+01     -0.2099460360E-03
          0                 4           3             9    1     2      -0.1076934590E-04       1    5    1      -0.8650816162E-02      0.2535690868E-01      0.3582142400E+00     -0.1076934590E-04

    ------------------------------------------------
       NWT REQUIRED            4 OUTER ITERATIONS 
       AND A TOTAL OF         21 INNER ITERATIONS.
    ------------------------------------------------
                                                   Max.-Head-Change                        Max.-Flux-Residual
  Residual-Control   Outer-Iter.   Inner-Iter.     Column Row Layer    Max.-Head-Change    Column Row Layer    Max.-Flux-Residual            L2-New               L2-Old           Solver-Max-Delh
          0                 1           8             9    1     1       0.3365765860E-01       1    1    1       0.2011379666E+02      0.5999436155E+02      0.2535690868E-01      0.3365765860E-01
          0                 2           6             9    1     1      -0.2991506054E-02       1    1    1      -0.2029575281E+01      0.6058474962E+01      0.5999436155E+02     -0.2991506054E-02
          0                 3           4             9    1     2      -0.1412124120E-03       1    1    1      -0.9716659447E-01      0.2937666888E+00      0.6058474962E+01     -0.1412124120E-03
          0                 4           3             5    1     1      -0.9743629324E-05       1    8    1      -0.7998812944E-02      0.2465903289E-01      0.2937666888E+00     -0.9743629324E-05

    ------------------------------------------------
       NWT REQUIRED            4 OUTER ITERATIONS 
       AND A TOTAL OF         21 INNER ITERATIONS.
    ------------------------------------------------
                                                   Max.-Head-Change                        Max.-Flux-Residual
  Residual-Control   Outer-Iter.   Inner-Iter.     Column Row Layer    Max.-Head-Change    Column Row Layer    Max.-Flux-Residual            L2-New               L2-Old           Solver-Max-Delh
          0                 1           7             1    1     1       0.2064204865E-01       1    1    1       0.1696889849E+02      0.3884718961E+02      0.2465903289E-01      0.2064204865E-01
          0                 2           6             9    1     1      -0.1829086891E-02       1    1    1      -0.1706366627E+01      0.3920949732E+01      0.3884718961E+02     -0.1829086891E-02
          0                 3           4             9    1     1      -0.8983386077E-04       1    1    1      -0.7614198921E-01      0.1904631941E+00      0.3920949732E+01     -0.8983386077E-04

    ------------------------------------------------
       NWT REQUIRED            3 OUTER ITERATIONS 
       AND A TOTAL OF         17 INNER ITERATIONS.
    ------------------------------------------------
                                                   Max.-Head-Change                        Max.-Flux-Residual
  Residual-Control   Outer-Iter.   Inner-Iter.     Column Row Layer    Max.-Head-Change    Column Row Layer    Max.-Flux-Residual            L2-New               L2-Old           Solver-Max-Delh
          0                 1           7             1    1     1       0.1269756653E-01       1    1    1       0.1082809444E+02      0.2136717993E+02      0.1904631941E+00      0.1269756653E-01
          0                 2           5             1    1     1      -0.1107845642E-02       1    1    1      -0.1094580069E+01      0.2161556458E+01      0.2136717993E+02     -0.1107845642E-02
          0                 3           4             1    1     1      -0.5256520409E-04       1    1    1      -0.5231071904E-01      0.1064238540E+00      0.2161556458E+01     -0.5256520409E-04

    ------------------------------------------------
       NWT REQUIRED            3 OUTER ITERATIONS 
       AND A TOTAL OF         16 INNER ITERATIONS.
    ------------------------------------------------
                                                   Max.-Head-Change                        Max.-Flux-Residual
  Residual-Control   Outer-Iter.   Inner-Iter.     Column Row Layer    Max.-Head-Change    Column Row Layer    Max.-Flux-Residual            L2-New               L2-Old           Solver-Max-Delh
          0                 1           6             1    1     1       0.6726160762E-02       1    1    1       0.5910468066E+01      0.1041771612E+02      0.1064238540E+00      0.6726160762E-02
          0                 2           5             1    1     1      -0.5878944061E-03       1    1    1      -0.6027651507E+00      0.1052817807E+01      0.1041771612E+02     -0.5878944061E-03
          0                 3           3             1    1     1      -0.2389952429E-04       1    1    1      -0.2295132529E-01      0.4663811089E-01      0.1052817807E+01     -0.2389952429E-04

    ------------------------------------------------
       NWT REQUIRED            3 OUTER ITERATIONS 
       AND A TOTAL OF         14 INNER ITERATIONS.
    ------------------------------------------------
                                                   Max.-Head-Change                        Max.-Flux-Residual
  Residual-Control   Outer-Iter.   Inner-Iter.     Column Row Layer    Max.-Head-Change    Column Row Layer    Max.-Flux-Residual            L2-New               L2-Old           Solver-Max-Delh
          0                 1           6             1    1     1       0.3162430860E-02       1    1    1       0.2868166480E+01      0.4602332555E+01      0.4663811089E-01      0.3162430860E-02
          0                 2           4             1    1     1      -0.2745218236E-03       1    1    1      -0.2861368757E+00      0.4618702148E+00      0.4602332555E+01     -0.2745218236E-03
          0                 3           3             1    1     1      -0.1629401503E-04       1    1    1      -0.1879229734E-01      0.3264779864E-01      0.4618702148E+00     -0.1629401503E-04

    ------------------------------------------------
       NWT REQUIRED            3 OUTER ITERATIONS 
       AND A TOTAL OF         13 INNER ITERATIONS.
    ------------------------------------------------
                                                   Max.-Head-Change                        Max.-Flux-Residual
  Residual-Control   Outer-Iter.   Inner-Iter.     Column Row Layer    Max.-Head-Change    Column Row Layer    Max.-Flux-Residual            L2-New               L2-Old           Solver-Max-Delh
          0                 1           5             1    1     1       0.1307397378E-02       1    1    1       0.1227877419E+01      0.1871007395E+01      0.3264779864E-01      0.1307397378E-02
          0                 2           4             1    1     1      -0.1098212565E-03       1    1    1      -0.1149040043E+00      0.1860516970E+00      0.1871007395E+01     -0.1098212565E-03
          0                 3           1             1    1     1      -0.8284926107E-05       1    1    1      -0.1480830566E-01      0.1866403057E-01      0.1860516970E+00     -0.8284926107E-05

    ------------------------------------------------
       NWT REQUIRED            3 OUTER ITERATIONS 
       AND A TOTAL OF         10 INNER ITERATIONS.
    ------------------------------------------------
                                                   Max.-Head-Change                        Max.-Flux-Residual
  Residual-Control   Outer-Iter.   Inner-Iter.     Column Row Layer    Max.-Head-Change    Column Row Layer    Max.-Flux-Residual            L2-New               L2-Old           Solver-Max-Delh
          0                 1           4             1    1     1       0.4509962838E-03       1    1    1       0.4569362298E+00      0.7104094889E+00      0.1866403057E-01      0.4509962838E-03
          0                 2           2             1    1     1      -0.3675478632E-04       1    1    1      -0.4556525289E-01      0.6874591797E-01      0.7104094889E+00     -0.3675478632E-04

    ------------------------------------------------
       NWT REQUIRED            2 OUTER ITERATIONS 
       AND A TOTAL OF          6 INNER ITERATIONS.
    ------------------------------------------------
                                                   Max.-Head-Change                        Max.-Flux-Residual
  Residual-Control   Outer-Iter.   Inner-Iter.     Column Row Layer    Max.-Head-Change    Column Row Layer    Max.-Flux-Residual            L2-New               L2-Old           Solver-Max-Delh
          0                 1           4             9    1     2      -0.1850277308E-03       1    1    1       0.1236159769E+00      0.2900849483E+00      0.6874591797E-01     -0.1850277308E-03
          0                 2           2             9    1     2       0.1533680335E-04       6    1    1       0.1424547250E-01      0.3317233011E-01      0.2900849483E+00      0.1533680335E-04

    ------------------------------------------------
       NWT REQUIRED            2 OUTER ITERATIONS 
       AND A TOTAL OF          6 INNER ITERATIONS.
    ------------------------------------------------

 OUTPUT CONTROL FOR STRESS PERIOD      4   TIME STEP     1
    SAVE BUDGET
 UBDSV1 SAVING "         STORAGE" ON UNIT7011 AT TIME STEP    1, STRESS PERIOD   4
 UBDSV2 SAVING "   CONSTANT HEAD" ON UNIT7011 AT TIME STEP    1, STRESS PERIOD   4
 UBDSV1 SAVING "FLOW RIGHT FACE " ON UNIT7011 AT TIME STEP    1, STRESS PERIOD   4
 UBDSV1 SAVING "FLOW FRONT FACE " ON UNIT7011 AT TIME STEP    1, STRESS PERIOD   4
 UBDSV1 SAVING "FLOW LOWER FACE " ON UNIT7011 AT TIME STEP    1, STRESS PERIOD   4
 
 
 
 
 
 
 
 
 UBDSV3 SAVING "FARM  NET  RECH." ON UNIT7011 AT TIME STEP    1, STRESS PERIOD   4
 UBDSV4 SAVING " GHOST-NODE HEAD" ON UNIT7011 AT TIME STEP    1, STRESS PERIOD   4
1
  FLUX ACROSS PARENT-CHILD INTERFACE AT TIME STEP  1 IN STRESS PERIOD    4
  ------------------------------------------------------------------------
 G-N FLUX        PARENT        CHILD         DIFFERENCE      % DIFFERENCE
  RATE IN:      3.8898E+03    3.8903E+03    -4.3164E-01       -0.0111
 RATE OUT:      3.2161E+03    3.2154E+03     6.2500E-01        0.0194
 
 SOLVING FOR HEAD 
                                                   Max.-Head-Change                        Max.-Flux-Residual
  Residual-Control   Outer-Iter.   Inner-Iter.     Column Row Layer    Max.-Head-Change    Column Row Layer    Max.-Flux-Residual            L2-New               L2-Old           Solver-Max-Delh
          0                 1           9             8    8     1      -0.8654162894E+00       2    8    1      -0.1641310644E+04      0.2419953812E+04      0.3317233011E-01     -0.8654162894E+00
          0                 2           8             8    8     1       0.7287148544E-01       2    8    1       0.1591745093E+03      0.2340319691E+03      0.2419953812E+04      0.7287148544E-01
          0                 3           6             8    8     1       0.3637588402E-02       2    8    1       0.7923286935E+01      0.1163961238E+02      0.2340319691E+03      0.3637588402E-02
          0                 4           3             8    8     1       0.1847146464E-03       2    8    1       0.3960009860E+00      0.5809211997E+00      0.1163961238E+02      0.1847146464E-03
          0                 5           2             8    8     1       0.8108674383E-05       2    8    1       0.1978742779E-01      0.3128419374E-01      0.5809211997E+00      0.8108674383E-05

    ------------------------------------------------
       NWT REQUIRED            5 OUTER ITERATIONS 
       AND A TOTAL OF         28 INNER ITERATIONS.
    ------------------------------------------------
                                                   Max.-Head-Change                        Max.-Flux-Residual
  Residual-Control   Outer-Iter.   Inner-Iter.     Column Row Layer    Max.-Head-Change    Column Row Layer    Max.-Flux-Residual            L2-New               L2-Old           Solver-Max-Delh
          0                 1           9             8    8     1       0.1236423176E+01       8    8    1       0.1649833797E+04      0.2474636660E+04      0.3128419374E-01      0.1236423176E+01
          0                 2           8             8    8     1      -0.1111304213E+00       8    8    1      -0.1800240563E+03      0.2636412896E+03      0.2474636660E+04     -0.1111304213E+00
          0                 3           6             8    8     1      -0.5640567460E-02       8    8    1      -0.9123099020E+01      0.1330520747E+02      0.2636412896E+03     -0.5640567460E-02
          0                 4           4             8    8     1      -0.2840221289E-03       8    8    1      -0.4563865339E+00      0.6638906125E+00      0.1330520747E+02     -0.2840221289E-03
          0                 5           2             8    8     1      -0.1407577320E-04       8    8    1      -0.2283812984E-01      0.3675993721E-01      0.6638906125E+00     -0.1407577320E-04

    ------------------------------------------------
       NWT REQUIRED            5 OUTER ITERATIONS 
       AND A TOTAL OF         29 INNER ITERATIONS.
    ------------------------------------------------
                                                   Max.-Head-Change                        Max.-Flux-Residual
  Residual-Control   Outer-Iter.   Inner-Iter.     Column Row Layer    Max.-Head-Change    Column Row Layer    Max.-Flux-Residual            L2-New               L2-Old           Solver-Max-Delh
          0                 1           8             1    1     1      -0.2430915930E+00       1    1    1      -0.2202094216E+03      0.3355282764E+03      0.3675993721E-01     -0.2430915930E+00
          0                 2           7             1    1     1       0.2115059553E-01       1    1    1       0.2210383316E+02      0.3376111683E+02      0.3355282764E+03      0.2115059553E-01
          0                 3           5             1    1     1       0.1038178519E-02       1    1    1       0.1088255231E+01      0.1653733085E+01      0.3376111683E+02      0.1038178519E-02
          0                 4           3             1    1     1       0.4793554253E-04       1    1    1       0.4946077452E-01      0.7923430478E-01      0.1653733085E+01      0.4793554253E-04

    ------------------------------------------------
       NWT REQUIRED            4 OUTER ITERATIONS 
       AND A TOTAL OF         23 INNER ITERATIONS.
    ------------------------------------------------
                                                   Max.-Head-Change                        Max.-Flux-Residual
  Residual-Control   Outer-Iter.   Inner-Iter.     Column Row Layer    Max.-Head-Change    Column Row Layer    Max.-Flux-Residual            L2-New               L2-Old           Solver-Max-Delh
          0                 1           7             1    1     1      -0.8268735734E-01       1    1    1      -0.7791371059E+02      0.1194567240E+03      0.7923430478E-01     -0.8268735734E-01
          0                 2           6             1    1     1       0.7208194349E-02       1    1    1       0.7845276616E+01      0.1202669950E+02      0.1194567240E+03      0.7208194349E-02
          0                 3           4             1    1     1       0.3586908593E-03       1    1    1       0.3915246256E+00      0.5989344225E+00      0.1202669950E+02      0.3586908593E-03
          0                 4           2             1    1     2       0.1291218672E-04       1    1    1       0.1184645086E-01      0.2932142772E-01      0.5989344225E+00      0.1291218672E-04

    ------------------------------------------------
       NWT REQUIRED            4 OUTER ITERATIONS 
       AND A TOTAL OF         19 INNER ITERATIONS.
    ------------------------------------------------
                                                   Max.-Head-Change                        Max.-Flux-Residual
  Residual-Control   Outer-Iter.   Inner-Iter.     Column Row Layer    Max.-Head-Change    Column Row Layer    Max.-Flux-Residual            L2-New               L2-Old           Solver-Max-Delh
          0                 1           7             1    9     1       0.1892367168E-01       1    1    1      -0.1826163255E+02      0.4188657394E+02      0.2932142772E-01      0.1892367168E-01
          0                 2           5             1    9     1      -0.1609245315E-02       1    1    1       0.1845418891E+01      0.4179658177E+01      0.4188657394E+02     -0.1609245315E-02
          0                 3           4             1    9     1      -0.8647074118E-04       1    1    1       0.9682984021E-01      0.2153963407E+00      0.4179658177E+01     -0.8647074118E-04

    ------------------------------------------------
       NWT REQUIRED            3 OUTER ITERATIONS 
       AND A TOTAL OF         16 INNER ITERATIONS.
    ------------------------------------------------
                                                   Max.-Head-Change                        Max.-Flux-Residual
  Residual-Control   Outer-Iter.   Inner-Iter.     Column Row Layer    Max.-Head-Change    Column Row Layer    Max.-Flux-Residual            L2-New               L2-Old           Solver-Max-Delh
          0                 1           7             1    8     1       0.1343464019E-01       1    9    1       0.1121223508E+02      0.2431524368E+02      0.2153963407E+00      0.1343464019E-01
          0                 2           5             1    8     1      -0.1147148873E-02       1    9    1      -0.1107128289E+01      0.2424862816E+01      0.2431524368E+02     -0.1147148873E-02
          0                 3           4             1    8     1      -0.5484593651E-04       1    9    1      -0.5416926858E-01      0.1182026140E+00      0.2424862816E+01     -0.5484593651E-04

    ------------------------------------------------
       NWT REQUIRED            3 OUTER ITERATIONS 
       AND A TOTAL OF         16 INNER ITERATIONS.
    ------------------------------------------------
                                                   Max.-Head-Change                        Max.-Flux-Residual
  Residual-Control   Outer-Iter.   Inner-Iter.     Column Row Layer    Max.-Head-Change    Column Row Layer    Max.-Flux-Residual            L2-New               L2-Old           Solver-Max-Delh
          0                 1           7             1    4     2       0.8431382257E-02       1    1    1       0.6553381409E+01      0.1760549358E+02      0.1182026140E+00      0.8431382257E-02
          0                 2           5             1    1     1      -0.7304795524E-03       1    1    1      -0.6663900070E+00      0.1768873039E+01      0.1760549358E+02     -0.7304795524E-03
          0                 3           4             1    4     2      -0.3620792776E-04       1    9    1      -0.3294271103E-01      0.8756306112E-01      0.1768873039E+01     -0.3620792776E-04

    ------------------------------------------------
       NWT REQUIRED            3 OUTER ITERATIONS 
       AND A TOTAL OF         16 INNER ITERATIONS.
    ------------------------------------------------
                                                   Max.-Head-Change                        Max.-Flux-Residual
  Residual-Control   Outer-Iter.   Inner-Iter.     Column Row Layer    Max.-Head-Change    Column Row Layer    Max.-Flux-Residual            L2-New               L2-Old           Solver-Max-Delh
          0                 1           7             1    1     1       0.6605053079E-02       1    1    1       0.5519179858E+01      0.1119980534E+02      0.8756306112E-01      0.6605053079E-02
          0                 2           5             1    1     1      -0.5766573935E-03       1    1    1      -0.5594928577E+00      0.1125543958E+01      0.1119980534E+02     -0.5766573935E-03
          0                 3           3             1    1     1      -0.2827432879E-04       1    1    1      -0.2773528907E-01      0.5702874764E-01      0.1125543958E+01     -0.2827432879E-04

    ------------------------------------------------
       NWT REQUIRED            3 OUTER ITERATIONS 
       AND A TOTAL OF         15 INNER ITERATIONS.
    ------------------------------------------------
                                                   Max.-Head-Change                        Max.-Flux-Residual
  Residual-Control   Outer-Iter.   Inner-Iter.     Column Row Layer    Max.-Head-Change    Column Row Layer    Max.-Flux-Residual            L2-New               L2-Old           Solver-Max-Delh
          0                 1           6             1    1     1       0.4095219894E-02       1    1    1       0.3533916717E+01      0.6250265732E+01      0.5702874764E-01      0.4095219894E-02
          0                 2           5             1    1     1      -0.3571590680E-03       1    1    1      -0.3544844717E+00      0.6296455849E+00      0.6250265732E+01     -0.3571590680E-03
          0                 3           3             1    1     1      -0.1815193213E-04       1    1    1      -0.1795221597E-01      0.3597264877E-01      0.6296455849E+00     -0.1815193213E-04

    ------------------------------------------------
       NWT REQUIRED            3 OUTER ITERATIONS 
       AND A TOTAL OF         14 INNER ITERATIONS.
    ------------------------------------------------
                                                   Max.-Head-Change                        Max.-Flux-Residual
  Residual-Control   Outer-Iter.   Inner-Iter.     Column Row Layer    Max.-Head-Change    Column Row Layer    Max.-Flux-Residual            L2-New               L2-Old           Solver-Max-Delh
          0                 1           5             1    1     1       0.2183398243E-02       1    1    1       0.1929747797E+01      0.3142893471E+01      0.3597264877E-01      0.2183398243E-02
          0                 2           4             1    1     1      -0.1869393911E-03       1    1    1      -0.1871203881E+00      0.3147134283E+00      0.3142893471E+01     -0.1869393911E-03
          0                 3           2             1    1     1      -0.1234299169E-04       1    1    1      -0.1283524267E-01      0.2334066604E-01      0.3147134283E+00     -0.1234299169E-04

    ------------------------------------------------
       NWT REQUIRED            3 OUTER ITERATIONS 
       AND A TOTAL OF         11 INNER ITERATIONS.
    ------------------------------------------------
                                                   Max.-Head-Change                        Max.-Flux-Residual
  Residual-Control   Outer-Iter.   Inner-Iter.     Column Row Layer    Max.-Head-Change    Column Row Layer    Max.-Flux-Residual            L2-New               L2-Old           Solver-Max-Delh
          0                 1           5             1    1     1       0.1033715944E-02       1    1    1       0.9348237705E+00      0.1441380464E+01      0.2334066604E-01      0.1033715944E-02
          0                 2           4             1    1     1      -0.8628262241E-04       1    1    1      -0.8882265468E-01      0.1409874457E+00      0.1441380464E+01     -0.8628262241E-04

    ------------------------------------------------
       NWT REQUIRED            2 OUTER ITERATIONS 
       AND A TOTAL OF          9 INNER ITERATIONS.
    ------------------------------------------------
                                                   Max.-Head-Change                        Max.-Flux-Residual
  Residual-Control   Outer-Iter.   Inner-Iter.     Column Row Layer    Max.-Head-Change    Column Row Layer    Max.-Flux-Residual            L2-New               L2-Old           Solver-Max-Delh
          0                 1           4             1    1     1       0.4313890105E-03       1    1    1       0.4066359607E+00      0.6008659046E+00      0.1409874457E+00      0.4313890105E-03
          0                 2           3             1    1     1      -0.3348902583E-04       1    1    1      -0.3680120117E-01      0.5549118269E-01      0.6008659046E+00     -0.3348902583E-04

    ------------------------------------------------
       NWT REQUIRED            2 OUTER ITERATIONS 
       AND A TOTAL OF          7 INNER ITERATIONS.
    ------------------------------------------------
                                                   Max.-Head-Change                        Max.-Flux-Residual
  Residual-Control   Outer-Iter.   Inner-Iter.     Column Row Layer    Max.-Head-Change    Column Row Layer    Max.-Flux-Residual            L2-New               L2-Old           Solver-Max-Delh
          0                 1           3             1    1     1       0.1412287711E-03       1    1    1       0.1339153823E+00      0.2218841717E+00      0.5549118269E-01      0.1412287711E-03
          0                 2           2             1    1     1      -0.1351049584E-04       1    1    1      -0.1504847175E-01      0.2751448772E-01      0.2218841717E+00     -0.1351049584E-04

    ------------------------------------------------
       NWT REQUIRED            2 OUTER ITERATIONS 
       AND A TOTAL OF          5 INNER ITERATIONS.
    ------------------------------------------------

 OUTPUT CONTROL FOR STRESS PERIOD      4   TIME STEP     2
    SAVE BUDGET
 UBDSV1 SAVING "         STORAGE" ON UNIT7011 AT TIME STEP    2, STRESS PERIOD   4
 UBDSV2 SAVING "   CONSTANT HEAD" ON UNIT7011 AT TIME STEP    2, STRESS PERIOD   4
 UBDSV1 SAVING "FLOW RIGHT FACE " ON UNIT7011 AT TIME STEP    2, STRESS PERIOD   4
 UBDSV1 SAVING "FLOW FRONT FACE " ON UNIT7011 AT TIME STEP    2, STRESS PERIOD   4
 UBDSV1 SAVING "FLOW LOWER FACE " ON UNIT7011 AT TIME STEP    2, STRESS PERIOD   4
 
 
 
 
 
 
 
 
 UBDSV3 SAVING "FARM  NET  RECH." ON UNIT7011 AT TIME STEP    2, STRESS PERIOD   4
 UBDSV4 SAVING " GHOST-NODE HEAD" ON UNIT7011 AT TIME STEP    2, STRESS PERIOD   4
1
  VOLUMETRIC BUDGET FOR ENTIRE MODEL AT END OF TIME STEP    2 IN STRESS PERIOD      4
  ------------------------------------------------------------------------------

     CUMULATIVE VOLUMES      L**3       RATES FOR THIS TIME STEP      L**3/T
     ------------------                 ------------------------

           IN:                                      IN:
           ---                                      ---
             STORAGE =       64903.8203               STORAGE =         247.8254
       CONSTANT HEAD =           0.0000         CONSTANT HEAD =           0.0000
          FARM WELLS =           0.0000            FARM WELLS =           0.0000
    FARM  NET  RECH. =      217507.8438      FARM  NET  RECH. =        2321.4409
     GHOST-NODE HEAD =     3464166.7500       GHOST-NODE HEAD =        3796.0461

            TOTAL IN =     3746578.5000              TOTAL IN =        6365.3125

          OUT:                                     OUT:
          ----                                     ----
             STORAGE =     3570231.0000               STORAGE =         441.7488
       CONSTANT HEAD =           0.0000         CONSTANT HEAD =           0.0000
          FARM WELLS =       56289.6914            FARM WELLS =        1850.4172
    FARM  NET  RECH. =           0.0000      FARM  NET  RECH. =           0.0000
     GHOST-NODE HEAD =      120056.5625       GHOST-NODE HEAD =        4073.1255

           TOTAL OUT =     3746577.2500             TOTAL OUT =        6365.2915

            IN - OUT =           1.2500              IN - OUT =       2.0996E-02

 PERCENT DISCREPANCY =           0.00     PERCENT DISCREPANCY =           0.00






          TIME SUMMARY AT END OF TIME STEP     2 IN STRESS PERIOD      4
                    SECONDS     MINUTES      HOURS       DAYS        YEARS
                    -----------------------------------------------------------
   TIME STEP LENGTH 1.31414E+06  21902.      365.04      15.210     4.16427E-02
 STRESS PERIOD TIME 2.62829E+06  43805.      730.08      30.420     8.32854E-02
         TOTAL TIME 1.05132E+07 1.75219E+05  2920.3      121.68     0.33314    
1
1
  FLUX ACROSS PARENT-CHILD INTERFACE AT TIME STEP  2 IN STRESS PERIOD    4
  ------------------------------------------------------------------------
 G-N FLUX        PARENT        CHILD         DIFFERENCE      % DIFFERENCE
  RATE IN:      3.7959E+03    3.7960E+03    -1.7383E-01       -0.0046
 RATE OUT:      4.0736E+03    4.0731E+03     5.0415E-01        0.0124
1
                            STRESS PERIOD NO.      5, LENGTH =   30.42000    
                            -----------------------------------------------

                              NUMBER OF TIME STEPS =     2

                               MULTIPLIER FOR DELT =     1.000

                            INITIAL TIME STEP SIZE =   15.21000    

 Parameter:  WELLS1
 WELL NO. LAYER    ROW    COL  F-WELL ID    FARM ID         QMAX         QMAXRESET       LGRGRID         
 --------------------------------------------------------------------------------------------------------
       1      1      8      2          2          1      5.0000E+03              0              0
       2      1      8      8          3          1      5.0000E+03              0              0

 NUMBER OF ACTIVE FARM WELLS:        2

 FARM-ID  NUMBER OF WELLS PER FARM  TOTAL MAX.CAPACITY PER FARM
       1                         2                   10000.0000
       2                         0                       0.0000
       3                         0                       0.0000
       4                         0                       0.0000
       5                         0                       0.0000
       6                         0                       0.0000
       7                         0                       0.0000
       8                         0                       0.0000

Transpiratory and Evaporative Fractions of Crop Consumptive Use
    % Transpiration % Evap. for Precip. % Evap. for Irrig.
    2          0.940          0.060          0.060
    3          0.000          1.000          1.000

FRACTIONS OF IN-EFFICIENT LOSSES TO SW-RUNOFF FROM 
     PRECIPITATION:  IRRIGATION:
    2          0.400          0.300
    3          0.600          0.500
 
 SOLVING FOR HEAD 
                                                   Max.-Head-Change                        Max.-Flux-Residual
  Residual-Control   Outer-Iter.   Inner-Iter.     Column Row Layer    Max.-Head-Change    Column Row Layer    Max.-Flux-Residual            L2-New               L2-Old           Solver-Max-Delh
          0                 1           9             8    8     1      -0.2750631575E+01       8    8    1      -0.3970146628E+04      0.5663940748E+04      0.2751448772E-01     -0.2750631575E+01
          0                 2           8             8    8     1       0.2117073832E+00       2    8    1       0.3476719764E+03      0.4812129409E+03      0.5663940748E+04      0.2117073832E+00
          0                 3           6             8    8     1       0.1059252952E-01       2    8    1       0.1708472204E+02      0.2351579004E+02      0.4812129409E+03      0.1059252952E-01
          0                 4           5             8    8     1       0.5373015440E-03       2    8    1       0.8533256016E+00      0.1173831328E+01      0.2351579004E+02      0.5373015440E-03
          0                 5           3             8    8     1       0.2663362411E-04       2    8    1       0.4263675929E-01      0.6007009221E-01      0.1173831328E+01      0.2663362411E-04

    ------------------------------------------------
       NWT REQUIRED            5 OUTER ITERATIONS 
       AND A TOTAL OF         31 INNER ITERATIONS.
    ------------------------------------------------
                                                   Max.-Head-Change                        Max.-Flux-Residual
  Residual-Control   Outer-Iter.   Inner-Iter.     Column Row Layer    Max.-Head-Change    Column Row Layer    Max.-Flux-Residual            L2-New               L2-Old           Solver-Max-Delh
          0                 1           9             8    8     1       0.1284342057E+01       2    8    1       0.1610448988E+04      0.2376599021E+04      0.6007009221E-01      0.1284342057E+01
          0                 2           8             8    8     1      -0.1136847885E+00       8    8    1      -0.1748362129E+03      0.2540905780E+03      0.2376599021E+04     -0.1136847885E+00
          0                 3           6             8    8     1      -0.5794162823E-02       8    8    1      -0.8867766904E+01      0.1280242415E+02      0.2540905780E+03     -0.5794162823E-02
          0                 4           4             8    8     1      -0.2934549893E-03       8    8    1      -0.4436533752E+00      0.6381305612E+00      0.1280242415E+02     -0.2934549893E-03
          0                 5           2             8    8     1      -0.1310915320E-04       8    8    1      -0.2215013519E-01      0.3612757652E-01      0.6381305612E+00     -0.1310915320E-04

    ------------------------------------------------
       NWT REQUIRED            5 OUTER ITERATIONS 
       AND A TOTAL OF         29 INNER ITERATIONS.
    ------------------------------------------------
                                                   Max.-Head-Change                        Max.-Flux-Residual
  Residual-Control   Outer-Iter.   Inner-Iter.     Column Row Layer    Max.-Head-Change    Column Row Layer    Max.-Flux-Residual            L2-New               L2-Old           Solver-Max-Delh
          0                 1           8             9    1     1       0.2293564605E+00       8    1    1       0.1360162829E+03      0.2947248302E+03      0.3612757652E-01      0.2293564605E+00
          0                 2           7             9    1     1      -0.2030510155E-01       7    1    1      -0.1403577217E+02      0.3016317458E+02      0.2947248302E+03     -0.2030510155E-01
          0                 3           5             9    1     1      -0.9753816141E-03       8    1    1      -0.6766361154E+00      0.1461937532E+01      0.3016317458E+02     -0.9753816141E-03
          0                 4           3             9    1     1      -0.4748320860E-04       7    1    1      -0.3795844142E-01      0.7175579637E-01      0.1461937532E+01     -0.4748320860E-04

    ------------------------------------------------
       NWT REQUIRED            4 OUTER ITERATIONS 
       AND A TOTAL OF         23 INNER ITERATIONS.
    ------------------------------------------------
                                                   Max.-Head-Change                        Max.-Flux-Residual
  Residual-Control   Outer-Iter.   Inner-Iter.     Column Row Layer    Max.-Head-Change    Column Row Layer    Max.-Flux-Residual            L2-New               L2-Old           Solver-Max-Delh
          0                 1           8             9    1     1       0.7520424869E-01       8    1    1       0.4492832153E+02      0.9363673579E+02      0.7175579637E-01      0.7520424869E-01
          0                 2           6             9    1     1      -0.6630438022E-02       7    1    1      -0.4600920404E+01      0.9541886909E+01      0.9363673579E+02     -0.6630438022E-02
          0                 3           4             9    1     1      -0.3228944918E-03       8    1    1      -0.2244698473E+00      0.4640240227E+00      0.9541886909E+01     -0.3228944918E-03
          0                 4           2             9    1     1      -0.1268527857E-04       7    1    1      -0.1018233562E-01      0.2403439763E-01      0.4640240227E+00     -0.1268527857E-04

    ------------------------------------------------
       NWT REQUIRED            4 OUTER ITERATIONS 
       AND A TOTAL OF         20 INNER ITERATIONS.
    ------------------------------------------------
                                                   Max.-Head-Change                        Max.-Flux-Residual
  Residual-Control   Outer-Iter.   Inner-Iter.     Column Row Layer    Max.-Head-Change    Column Row Layer    Max.-Flux-Residual            L2-New               L2-Old           Solver-Max-Delh
          0                 1           7             9    1     1       0.1138416370E-01       7    1    1       0.7141654307E+01      0.1913983540E+02      0.2403439763E-01      0.1138416370E-01
          0                 2           5             9    1     1      -0.9995722745E-03       8    1    1      -0.7254592151E+00      0.1921360729E+01      0.1913983540E+02     -0.9995722745E-03
          0                 3           3             9    1     1      -0.5025100921E-04       8    1    1      -0.3785911237E-01      0.9706927062E-01      0.1921360729E+01     -0.5025100921E-04

    ------------------------------------------------
       NWT REQUIRED            3 OUTER ITERATIONS 
       AND A TOTAL OF         15 INNER ITERATIONS.
    ------------------------------------------------
                                                   Max.-Head-Change                        Max.-Flux-Residual
  Residual-Control   Outer-Iter.   Inner-Iter.     Column Row Layer    Max.-Head-Change    Column Row Layer    Max.-Flux-Residual            L2-New               L2-Old           Solver-Max-Delh
          0                 1           6             9    1     2      -0.9463930919E-02       6    1    1      -0.5407446324E+01      0.1522657874E+02      0.9706927062E-01     -0.9463930919E-02
          0                 2           5             9    1     2       0.8196667837E-03       6    1    1       0.5415223626E+00      0.1528936230E+01      0.1522657874E+02      0.8196667837E-03
          0                 3           3             9    1     2       0.4082113230E-04       4    1    1       0.2849543013E-01      0.7865999621E-01      0.1528936230E+01      0.4082113230E-04

    ------------------------------------------------
       NWT REQUIRED            3 OUTER ITERATIONS 
       AND A TOTAL OF         14 INNER ITERATIONS.
    ------------------------------------------------
                                                   Max.-Head-Change                        Max.-Flux-Residual
  Residual-Control   Outer-Iter.   Inner-Iter.     Column Row Layer    Max.-Head-Change    Column Row Layer    Max.-Flux-Residual            L2-New               L2-Old           Solver-Max-Delh
          0                 1           6             9    1     1      -0.9623063383E-02       9    1    1      -0.5446108458E+01      0.1339196417E+02      0.7865999621E-01     -0.9623063383E-02
          0                 2           5             9    1     1       0.8488726480E-03       8    1    1       0.5585335160E+00      0.1357233456E+01      0.1339196417E+02      0.8488726480E-03
          0                 3           3             7    1     1       0.4165649198E-04       7    1    1       0.3370334080E-01      0.6747991338E-01      0.1357233456E+01      0.4165649198E-04

    ------------------------------------------------
       NWT REQUIRED            3 OUTER ITERATIONS 
       AND A TOTAL OF         14 INNER ITERATIONS.
    ------------------------------------------------
                                                   Max.-Head-Change                        Max.-Flux-Residual
  Residual-Control   Outer-Iter.   Inner-Iter.     Column Row Layer    Max.-Head-Change    Column Row Layer    Max.-Flux-Residual            L2-New               L2-Old           Solver-Max-Delh
          0                 1           6             9    1     1      -0.6567699457E-02       8    1    1      -0.3731425643E+01      0.8503989940E+01      0.6747991338E-01     -0.6567699457E-02
          0                 2           5             9    1     1       0.5828077097E-03       8    1    1       0.3863276531E+00      0.8713628493E+00      0.8503989940E+01      0.5828077097E-03
          0                 3           3             9    1     1       0.2546524462E-04       7    1    1       0.1733378274E-01      0.4190040947E-01      0.8713628493E+00      0.2546524462E-04

    ------------------------------------------------
       NWT REQUIRED            3 OUTER ITERATIONS 
       AND A TOTAL OF         14 INNER ITERATIONS.
    ------------------------------------------------
                                                   Max.-Head-Change                        Max.-Flux-Residual
  Residual-Control   Outer-Iter.   Inner-Iter.     Column Row Layer    Max.-Head-Change    Column Row Layer    Max.-Flux-Residual            L2-New               L2-Old           Solver-Max-Delh
          0                 1           6             9    1     1      -0.3476150458E-02       8    1    1      -0.1982810460E+01      0.4498970058E+01      0.4190040947E-01     -0.3476150458E-02
          0                 2           4             9    1     1       0.3080668476E-03       9    1    1       0.2041259265E+00      0.4574587199E+00      0.4498970058E+01      0.3080668476E-03
          0                 3           3             9    1     1       0.1334548819E-04       1    1    1       0.1297413348E-01      0.2679101180E-01      0.4574587199E+00      0.1334548819E-04

    ------------------------------------------------
       NWT REQUIRED            3 OUTER ITERATIONS 
       AND A TOTAL OF         13 INNER ITERATIONS.
    ------------------------------------------------
                                                   Max.-Head-Change                        Max.-Flux-Residual
  Residual-Control   Outer-Iter.   Inner-Iter.     Column Row Layer    Max.-Head-Change    Column Row Layer    Max.-Flux-Residual            L2-New               L2-Old           Solver-Max-Delh
          0                 1           5             9    1     1      -0.1512226599E-02       8    1    1      -0.8746780035E+00      0.2086472802E+01      0.2679101180E-01     -0.1512226599E-02
          0                 2           4             9    1     1       0.1337251993E-03       8    1    1       0.9376658010E-01      0.2112532621E+00      0.2086472802E+01      0.1337251993E-03
          0                 3           2             1    1     1       0.6304986124E-05       7    1    1       0.8324655006E-02      0.1568501305E-01      0.2112532621E+00      0.6304986124E-05

    ------------------------------------------------
       NWT REQUIRED            3 OUTER ITERATIONS 
       AND A TOTAL OF         11 INNER ITERATIONS.
    ------------------------------------------------
                                                   Max.-Head-Change                        Max.-Flux-Residual
  Residual-Control   Outer-Iter.   Inner-Iter.     Column Row Layer    Max.-Head-Change    Column Row Layer    Max.-Flux-Residual            L2-New               L2-Old           Solver-Max-Delh
          0                 1           5             9    1     1      -0.5138594718E-03       1    1    1      -0.3738944477E+00      0.8562393012E+00      0.1568501305E-01     -0.5138594718E-03
          0                 2           3             9    1     1       0.4414091197E-04       1    1    1       0.4199196538E-01      0.8745163063E-01      0.8562393012E+00      0.4414091197E-04

    ------------------------------------------------
       NWT REQUIRED            2 OUTER ITERATIONS 
       AND A TOTAL OF          8 INNER ITERATIONS.
    ------------------------------------------------
                                                   Max.-Head-Change                        Max.-Flux-Residual
  Residual-Control   Outer-Iter.   Inner-Iter.     Column Row Layer    Max.-Head-Change    Column Row Layer    Max.-Flux-Residual            L2-New               L2-Old           Solver-Max-Delh
          0                 1           4             1    2     1      -0.1909965919E-03       1    1    1      -0.1503314598E+00      0.3305223641E+00      0.8745163063E-01     -0.1909965919E-03
          0                 2           3             1    2     1       0.1439342998E-04       1    2    1       0.1312063588E-01      0.3476892527E-01      0.3305223641E+00      0.1439342998E-04

    ------------------------------------------------
       NWT REQUIRED            2 OUTER ITERATIONS 
       AND A TOTAL OF          7 INNER ITERATIONS.
    ------------------------------------------------

 OUTPUT CONTROL FOR STRESS PERIOD      5   TIME STEP     1
    SAVE BUDGET
 UBDSV1 SAVING "         STORAGE" ON UNIT7011 AT TIME STEP    1, STRESS PERIOD   5
 UBDSV2 SAVING "   CONSTANT HEAD" ON UNIT7011 AT TIME STEP    1, STRESS PERIOD   5
 UBDSV1 SAVING "FLOW RIGHT FACE " ON UNIT7011 AT TIME STEP    1, STRESS PERIOD   5
 UBDSV1 SAVING "FLOW FRONT FACE " ON UNIT7011 AT TIME STEP    1, STRESS PERIOD   5
 UBDSV1 SAVING "FLOW LOWER FACE " ON UNIT7011 AT TIME STEP    1, STRESS PERIOD   5
 
 
 
 
 
 
 
 
 UBDSV3 SAVING "FARM  NET  RECH." ON UNIT7011 AT TIME STEP    1, STRESS PERIOD   5
 UBDSV4 SAVING " GHOST-NODE HEAD" ON UNIT7011 AT TIME STEP    1, STRESS PERIOD   5
1
  FLUX ACROSS PARENT-CHILD INTERFACE AT TIME STEP  1 IN STRESS PERIOD    5
  ------------------------------------------------------------------------
 G-N FLUX        PARENT        CHILD         DIFFERENCE      % DIFFERENCE
  RATE IN:      5.9871E+03    5.9869E+03     1.0840E-01        0.0018
 RATE OUT:      2.8822E+03    2.8828E+03    -6.8530E-01       -0.0238
 
 SOLVING FOR HEAD 
                                                   Max.-Head-Change                        Max.-Flux-Residual
  Residual-Control   Outer-Iter.   Inner-Iter.     Column Row Layer    Max.-Head-Change    Column Row Layer    Max.-Flux-Residual            L2-New               L2-Old           Solver-Max-Delh
          0                 1           9             8    8     1      -0.1337737392E+01       8    8    1      -0.1636885584E+04      0.2433488473E+04      0.3476892527E-01     -0.1337737392E+01
          0                 2           8             8    8     1       0.1087181597E+00       2    8    1       0.1513673759E+03      0.2245230562E+03      0.2433488473E+04      0.1087181597E+00
          0                 3           6             8    8     1       0.5487362900E-02       2    8    1       0.7491692243E+01      0.1102607595E+02      0.2245230562E+03      0.5487362900E-02
          0                 4           4             8    8     1       0.2796600873E-03       2    8    1       0.3743066789E+00      0.5490371377E+00      0.1102607595E+02      0.2796600873E-03
          0                 5           2             8    8     1       0.1284054882E-04       2    8    1       0.1872527041E-01      0.3096115042E-01      0.5490371377E+00      0.1284054882E-04

    ------------------------------------------------
       NWT REQUIRED            5 OUTER ITERATIONS 
       AND A TOTAL OF         29 INNER ITERATIONS.
    ------------------------------------------------
                                                   Max.-Head-Change                        Max.-Flux-Residual
  Residual-Control   Outer-Iter.   Inner-Iter.     Column Row Layer    Max.-Head-Change    Column Row Layer    Max.-Flux-Residual            L2-New               L2-Old           Solver-Max-Delh
          0                 1           9             8    8     1       0.1294814991E+01       8    8    1       0.1585557700E+04      0.2345603709E+04      0.3096115042E-01      0.1294814991E+01
          0                 2           8             8    8     1      -0.1161267617E+00       8    8    1      -0.1747539753E+03      0.2539225065E+03      0.2345603709E+04     -0.1161267617E+00
          0                 3           6             8    8     1      -0.5931714309E-02       8    8    1      -0.8868953665E+01      0.1279497809E+02      0.2539225065E+03     -0.5931714309E-02
          0                 4           4             8    8     1      -0.3002513305E-03       8    8    1      -0.4437021363E+00      0.6377641042E+00      0.1279497809E+02     -0.3002513305E-03
          0                 5           3             2    8     1      -0.1417309284E-04       8    8    1      -0.2212868433E-01      0.3645116732E-01      0.6377641042E+00     -0.1417309284E-04

    ------------------------------------------------
       NWT REQUIRED            5 OUTER ITERATIONS 
       AND A TOTAL OF         30 INNER ITERATIONS.
    ------------------------------------------------
                                                   Max.-Head-Change                        Max.-Flux-Residual
  Residual-Control   Outer-Iter.   Inner-Iter.     Column Row Layer    Max.-Head-Change    Column Row Layer    Max.-Flux-Residual            L2-New               L2-Old           Solver-Max-Delh
          0                 1           9             9    1     1       0.2980872545E+00       8    1    1       0.1733773619E+03      0.3505771118E+03      0.3645116732E-01      0.2980872545E+00
          0                 2           7             9    1     1      -0.2638764209E-01       8    1    1      -0.1793590899E+02      0.3601408976E+02      0.3505771118E+03     -0.2638764209E-01
          0                 3           5             9    1     1      -0.1277911839E-02       9    1    1      -0.8672066871E+00      0.1746998925E+01      0.3601408976E+02     -0.1277911839E-02
          0                 4           3             9    1     1      -0.6243900098E-04       8    1    1      -0.4337178078E-01      0.8392453325E-01      0.1746998925E+01     -0.6243900098E-04

    ------------------------------------------------
       NWT REQUIRED            4 OUTER ITERATIONS 
       AND A TOTAL OF         24 INNER ITERATIONS.
    ------------------------------------------------
                                                   Max.-Head-Change                        Max.-Flux-Residual
  Residual-Control   Outer-Iter.   Inner-Iter.     Column Row Layer    Max.-Head-Change    Column Row Layer    Max.-Flux-Residual            L2-New               L2-Old           Solver-Max-Delh
          0                 1           8             9    1     1       0.1208071770E+00       8    1    1       0.6889695313E+02      0.1549147299E+03      0.8392453325E-01      0.1208071770E+00
          0                 2           7             9    1     1      -0.1063228403E-01       7    1    1      -0.7070007416E+01      0.1566455652E+02      0.1549147299E+03     -0.1063228403E-01
          0                 3           5             9    1     1      -0.5174389746E-03       7    1    1      -0.3445400662E+00      0.7725678162E+00      0.1566455652E+02     -0.5174389746E-03
          0                 4           3             9    1     1      -0.2380629740E-04       9    1    1      -0.1692219643E-01      0.3707647185E-01      0.7725678162E+00     -0.2380629740E-04

    ------------------------------------------------
       NWT REQUIRED            4 OUTER ITERATIONS 
       AND A TOTAL OF         23 INNER ITERATIONS.
    ------------------------------------------------
                                                   Max.-Head-Change                        Max.-Flux-Residual
  Residual-Control   Outer-Iter.   Inner-Iter.     Column Row Layer    Max.-Head-Change    Column Row Layer    Max.-Flux-Residual            L2-New               L2-Old           Solver-Max-Delh
          0                 1           7             9    1     1       0.3558884307E-01       1    9    1       0.2272166876E+02      0.6395277318E+02      0.3707647185E-01      0.3558884307E-01
          0                 2           6             9    1     1      -0.3122933788E-02       1    9    1      -0.2216680185E+01      0.6349402535E+01      0.6395277318E+02     -0.3122933788E-02
          0                 3           4             9    1     1      -0.1508968322E-03       1    9    1      -0.1178012907E+00      0.3233534209E+00      0.6349402535E+01     -0.1508968322E-03
          0                 4           2             9    1     1      -0.1044566710E-04       8    1    1      -0.8021592395E-02      0.2253753814E-01      0.3233534209E+00     -0.1044566710E-04

    ------------------------------------------------
       NWT REQUIRED            4 OUTER ITERATIONS 
       AND A TOTAL OF         19 INNER ITERATIONS.
    ------------------------------------------------
                                                   Max.-Head-Change                        Max.-Flux-Residual
  Residual-Control   Outer-Iter.   Inner-Iter.     Column Row Layer    Max.-Head-Change    Column Row Layer    Max.-Flux-Residual            L2-New               L2-Old           Solver-Max-Delh
          0                 1           7             1    9     1       0.1584561432E-01       1    9    1       0.1388189439E+02      0.2751395720E+02      0.2253753814E-01      0.1584561432E-01
          0                 2           5             1    9     1      -0.1336153987E-02       1    9    1      -0.1356214252E+01      0.2702948551E+01      0.2751395720E+02     -0.1336153987E-02
          0                 3           4             1    9     1      -0.6944312290E-04       1    9    1      -0.7193751191E-01      0.1358614889E+00      0.2702948551E+01     -0.6944312290E-04

    ------------------------------------------------
       NWT REQUIRED            3 OUTER ITERATIONS 
       AND A TOTAL OF         16 INNER ITERATIONS.
    ------------------------------------------------
                                                   Max.-Head-Change                        Max.-Flux-Residual
  Residual-Control   Outer-Iter.   Inner-Iter.     Column Row Layer    Max.-Head-Change    Column Row Layer    Max.-Flux-Residual            L2-New               L2-Old           Solver-Max-Delh
          0                 1           6             1    9     1       0.7717512781E-02       1    9    1       0.7103062291E+01      0.1468199148E+02      0.1358614889E+00      0.7717512781E-02
          0                 2           5             1    9     1      -0.6515779925E-03       1    9    1      -0.6951245361E+00      0.1459105249E+01      0.1468199148E+02     -0.6515779925E-03
          0                 3           3             1    9     1      -0.3089298801E-04       1    9    1      -0.3420647985E-01      0.7096855607E-01      0.1459105249E+01     -0.3089298801E-04

    ------------------------------------------------
       NWT REQUIRED            3 OUTER ITERATIONS 
       AND A TOTAL OF         14 INNER ITERATIONS.
    ------------------------------------------------
                                                   Max.-Head-Change                        Max.-Flux-Residual
  Residual-Control   Outer-Iter.   Inner-Iter.     Column Row Layer    Max.-Head-Change    Column Row Layer    Max.-Flux-Residual            L2-New               L2-Old           Solver-Max-Delh
          0                 1           6             9    1     1      -0.5397432121E-02       9    1    1      -0.3149195359E+01      0.8540583000E+01      0.7096855607E-01     -0.5397432121E-02
          0                 2           5             9    1     1       0.4762054803E-03       8    1    1       0.3244333598E+00      0.8536186026E+00      0.8540583000E+01      0.4762054803E-03
          0                 3           2             9    1     1       0.2347643139E-04       1    9    1      -0.2626779972E-01      0.5280005961E-01      0.8536186026E+00      0.2347643139E-04

    ------------------------------------------------
       NWT REQUIRED            3 OUTER ITERATIONS 
       AND A TOTAL OF         13 INNER ITERATIONS.
    ------------------------------------------------
                                                   Max.-Head-Change                        Max.-Flux-Residual
  Residual-Control   Outer-Iter.   Inner-Iter.     Column Row Layer    Max.-Head-Change    Column Row Layer    Max.-Flux-Residual            L2-New               L2-Old           Solver-Max-Delh
          0                 1           6             9    1     1      -0.3311569497E-02       8    1    1      -0.1939685529E+01      0.4454612311E+01      0.5280005961E-01     -0.3311569497E-02
          0                 2           4             9    1     1       0.2920422393E-03       8    1    1       0.2014785943E+00      0.4530238017E+00      0.4454612311E+01      0.2920422393E-03
          0                 3           2             9    1     1       0.1197200930E-04       7    9    1       0.9357249131E-02      0.2392318841E-01      0.4530238017E+00      0.1197200930E-04

    ------------------------------------------------
       NWT REQUIRED            3 OUTER ITERATIONS 
       AND A TOTAL OF         12 INNER ITERATIONS.
    ------------------------------------------------
                                                   Max.-Head-Change                        Max.-Flux-Residual
  Residual-Control   Outer-Iter.   Inner-Iter.     Column Row Layer    Max.-Head-Change    Column Row Layer    Max.-Flux-Residual            L2-New               L2-Old           Solver-Max-Delh
          0                 1           5             9    1     1      -0.1604672169E-02       8    1    1      -0.9605314892E+00      0.1989028036E+01      0.2392318841E-01     -0.1604672169E-02
          0                 2           4             9    1     1       0.1381115416E-03       7    1    1       0.9928050160E-01      0.2002344729E+00      0.1989028036E+01      0.1381115416E-03
          0                 3           1             9    1     1       0.6131357104E-05       9    1    1       0.7743272930E-02      0.1124630435E-01      0.2002344729E+00      0.6131357104E-05

    ------------------------------------------------
       NWT REQUIRED            3 OUTER ITERATIONS 
       AND A TOTAL OF         10 INNER ITERATIONS.
    ------------------------------------------------
                                                   Max.-Head-Change                        Max.-Flux-Residual
  Residual-Control   Outer-Iter.   Inner-Iter.     Column Row Layer    Max.-Head-Change    Column Row Layer    Max.-Flux-Residual            L2-New               L2-Old           Solver-Max-Delh
          0                 1           5             9    1     1      -0.6401054001E-03       7    1    1      -0.3978106614E+00      0.8275020346E+00      0.1124630435E-01     -0.6401054001E-03
          0                 2           3             9    1     1       0.5199777925E-04       7    1    1       0.4093165183E-01      0.8436281079E-01      0.8275020346E+00      0.5199777925E-04

    ------------------------------------------------
       NWT REQUIRED            2 OUTER ITERATIONS 
       AND A TOTAL OF          8 INNER ITERATIONS.
    ------------------------------------------------
                                                   Max.-Head-Change                        Max.-Flux-Residual
  Residual-Control   Outer-Iter.   Inner-Iter.     Column Row Layer    Max.-Head-Change    Column Row Layer    Max.-Flux-Residual            L2-New               L2-Old           Solver-Max-Delh
          0                 1           4             1    4     1      -0.1824104953E-03       1    5    1      -0.1240808577E+00      0.3777203968E+00      0.8436281079E-01     -0.1824104953E-03
          0                 2           3             1    6     1       0.1667750279E-04       1    6    1       0.1671511622E-01      0.3792380478E-01      0.3777203968E+00      0.1667750279E-04

    ------------------------------------------------
       NWT REQUIRED            2 OUTER ITERATIONS 
       AND A TOTAL OF          7 INNER ITERATIONS.
    ------------------------------------------------

 OUTPUT CONTROL FOR STRESS PERIOD      5   TIME STEP     2
    SAVE BUDGET
 UBDSV1 SAVING "         STORAGE" ON UNIT7011 AT TIME STEP    2, STRESS PERIOD   5
 UBDSV2 SAVING "   CONSTANT HEAD" ON UNIT7011 AT TIME STEP    2, STRESS PERIOD   5
 UBDSV1 SAVING "FLOW RIGHT FACE " ON UNIT7011 AT TIME STEP    2, STRESS PERIOD   5
 UBDSV1 SAVING "FLOW FRONT FACE " ON UNIT7011 AT TIME STEP    2, STRESS PERIOD   5
 UBDSV1 SAVING "FLOW LOWER FACE " ON UNIT7011 AT TIME STEP    2, STRESS PERIOD   5
 
 
 
 
 
 
 
 
 UBDSV3 SAVING "FARM  NET  RECH." ON UNIT7011 AT TIME STEP    2, STRESS PERIOD   5
 UBDSV4 SAVING " GHOST-NODE HEAD" ON UNIT7011 AT TIME STEP    2, STRESS PERIOD   5
1
  VOLUMETRIC BUDGET FOR ENTIRE MODEL AT END OF TIME STEP    2 IN STRESS PERIOD      5
  ------------------------------------------------------------------------------

     CUMULATIVE VOLUMES      L**3       RATES FOR THIS TIME STEP      L**3/T
     ------------------                 ------------------------

           IN:                                      IN:
           ---                                      ---
             STORAGE =       70718.7656               STORAGE =           0.1679
       CONSTANT HEAD =           0.0000         CONSTANT HEAD =           0.0000
          FARM WELLS =           0.0000            FARM WELLS =           0.0000
    FARM  NET  RECH. =      332354.1562      FARM  NET  RECH. =        3775.3557
     GHOST-NODE HEAD =     3648206.0000       GHOST-NODE HEAD =        6112.9307

            TOTAL IN =     4051279.0000              TOTAL IN =        9888.4541

          OUT:                                     OUT:
          ----                                     ----
             STORAGE =     3589957.7500               STORAGE =         620.6327
       CONSTANT HEAD =           0.0000         CONSTANT HEAD =           0.0000
          FARM WELLS =      256612.7500            FARM WELLS =        6585.2417
    FARM  NET  RECH. =           0.0000      FARM  NET  RECH. =           0.0000
     GHOST-NODE HEAD =      204706.4688       GHOST-NODE HEAD =        2682.5747

           TOTAL OUT =     4051277.0000             TOTAL OUT =        9888.4492

            IN - OUT =           2.0000              IN - OUT =       4.8828E-03

 PERCENT DISCREPANCY =           0.00     PERCENT DISCREPANCY =           0.00






          TIME SUMMARY AT END OF TIME STEP     2 IN STRESS PERIOD      5
                    SECONDS     MINUTES      HOURS       DAYS        YEARS
                    -----------------------------------------------------------
   TIME STEP LENGTH 1.31414E+06  21902.      365.04      15.210     4.16427E-02
 STRESS PERIOD TIME 2.62829E+06  43805.      730.08      30.420     8.32854E-02
         TOTAL TIME 1.31414E+07 2.19024E+05  3650.4      152.10     0.41643    
1
1
  FLUX ACROSS PARENT-CHILD INTERFACE AT TIME STEP  2 IN STRESS PERIOD    5
  ------------------------------------------------------------------------
 G-N FLUX        PARENT        CHILD         DIFFERENCE      % DIFFERENCE
  RATE IN:      6.1127E+03    6.1129E+03    -2.1729E-01       -0.0036
 RATE OUT:      2.6821E+03    2.6826E+03    -4.5581E-01       -0.0170
1
                            STRESS PERIOD NO.      6, LENGTH =   30.42000    
                            -----------------------------------------------

                              NUMBER OF TIME STEPS =     2

                               MULTIPLIER FOR DELT =     1.000

                            INITIAL TIME STEP SIZE =   15.21000    

 Parameter:  WELLS1
 WELL NO. LAYER    ROW    COL  F-WELL ID    FARM ID         QMAX         QMAXRESET       LGRGRID         
 --------------------------------------------------------------------------------------------------------
       1      1      8      2          2          1      5.0000E+03              0              0
       2      1      8      8          3          1      5.0000E+03              0              0

 NUMBER OF ACTIVE FARM WELLS:        2

 FARM-ID  NUMBER OF WELLS PER FARM  TOTAL MAX.CAPACITY PER FARM
       1                         2                   10000.0000
       2                         0                       0.0000
       3                         0                       0.0000
       4                         0                       0.0000
       5                         0                       0.0000
       6                         0                       0.0000
       7                         0                       0.0000
       8                         0                       0.0000

Transpiratory and Evaporative Fractions of Crop Consumptive Use
    % Transpiration % Evap. for Precip. % Evap. for Irrig.
    2          0.950          0.050          0.050
    3          0.000          1.000          1.000

FRACTIONS OF IN-EFFICIENT LOSSES TO SW-RUNOFF FROM 
     PRECIPITATION:  IRRIGATION:
    2          0.400          0.300
    3          0.600          0.500
 
 SOLVING FOR HEAD 
                                                   Max.-Head-Change                        Max.-Flux-Residual
  Residual-Control   Outer-Iter.   Inner-Iter.     Column Row Layer    Max.-Head-Change    Column Row Layer    Max.-Flux-Residual            L2-New               L2-Old           Solver-Max-Delh
          0                 1           9             8    8     1      -0.1220077606E+01       8    8    1      -0.1704644355E+04      0.2419310594E+04      0.3792380478E-01     -0.1220077606E+01
          0                 2           8             8    8     1       0.9964665961E-01       2    8    1       0.1591978785E+03      0.2242037221E+03      0.2419310594E+04      0.9964665961E-01
          0                 3           6             8    8     1       0.5037357579E-02       2    8    1       0.7888040682E+01      0.1108264254E+02      0.2242037221E+03      0.5037357579E-02
          0                 4           4             8    8     1       0.2583897677E-03       2    8    1       0.3941350856E+00      0.5540049317E+00      0.1108264254E+02      0.2583897677E-03
          0                 5           2             8    8     1       0.1172825423E-04       2    8    1       0.1975374907E-01      0.3083225324E-01      0.5540049317E+00      0.1172825423E-04

    ------------------------------------------------
       NWT REQUIRED            5 OUTER ITERATIONS 
       AND A TOTAL OF         29 INNER ITERATIONS.
    ------------------------------------------------
                                                   Max.-Head-Change                        Max.-Flux-Residual
  Residual-Control   Outer-Iter.   Inner-Iter.     Column Row Layer    Max.-Head-Change    Column Row Layer    Max.-Flux-Residual            L2-New               L2-Old           Solver-Max-Delh
          0                 1           9             8    8     1       0.5678128605E+00       2    8    1       0.7429083950E+03      0.1057180634E+04      0.3083225324E-01      0.5678128605E+00
          0                 2           8             8    8     1      -0.4715349433E-01       8    8    1      -0.7394966869E+02      0.1045925724E+03      0.1057180634E+04     -0.4715349433E-01
          0                 3           5             8    8     1      -0.2402813106E-02       8    8    1      -0.3719288776E+01      0.5247324712E+01      0.1045925724E+03     -0.2402813106E-02
          0                 4           4             8    8     1      -0.1232295646E-03       8    8    1      -0.1860217367E+00      0.2623835035E+00      0.5247324712E+01     -0.1232295646E-03
          0                 5           2             8    8     1      -0.6934735960E-05       8    8    1      -0.9352129942E-02      0.1615758868E-01      0.2623835035E+00     -0.6934735960E-05

    ------------------------------------------------
       NWT REQUIRED            5 OUTER ITERATIONS 
       AND A TOTAL OF         28 INNER ITERATIONS.
    ------------------------------------------------
                                                   Max.-Head-Change                        Max.-Flux-Residual
  Residual-Control   Outer-Iter.   Inner-Iter.     Column Row Layer    Max.-Head-Change    Column Row Layer    Max.-Flux-Residual            L2-New               L2-Old           Solver-Max-Delh
          0                 1           7             1    9     1      -0.2030912828E-01       1    9    1      -0.1971913481E+02      0.4572081274E+02      0.1615758868E-01     -0.2030912828E-01
          0                 2           6             1    9     1       0.1709850236E-02       1    9    1       0.1929396116E+01      0.4550006662E+01      0.4572081274E+02      0.1709850236E-02
          0                 3           3             1    9     1       0.8690732389E-04       1    9    1       0.9589301981E-01      0.2268309691E+00      0.4550006662E+01      0.8690732389E-04

    ------------------------------------------------
       NWT REQUIRED            3 OUTER ITERATIONS 
       AND A TOTAL OF         16 INNER ITERATIONS.
    ------------------------------------------------
                                                   Max.-Head-Change                        Max.-Flux-Residual
  Residual-Control   Outer-Iter.   Inner-Iter.     Column Row Layer    Max.-Head-Change    Column Row Layer    Max.-Flux-Residual            L2-New               L2-Old           Solver-Max-Delh
          0                 1           7             1    1     1       0.9569143904E-02       1    1    1       0.8439014102E+01      0.1760708135E+02      0.2268309691E+00      0.9569143904E-02
          0                 2           5             1    1     1      -0.8307426386E-03       1    1    1      -0.8416800849E+00      0.1768451728E+01      0.1760708135E+02     -0.8307426386E-03
          0                 3           3             1    1     1      -0.4342374105E-04       1    1    1      -0.4837916617E-01      0.8982975496E-01      0.1768451728E+01     -0.4342374105E-04

    ------------------------------------------------
       NWT REQUIRED            3 OUTER ITERATIONS 
       AND A TOTAL OF         15 INNER ITERATIONS.
    ------------------------------------------------
                                                   Max.-Head-Change                        Max.-Flux-Residual
  Residual-Control   Outer-Iter.   Inner-Iter.     Column Row Layer    Max.-Head-Change    Column Row Layer    Max.-Flux-Residual            L2-New               L2-Old           Solver-Max-Delh
          0                 1           6             1    2     1       0.5054572312E-02       1    1    1       0.4047061690E+01      0.8673318007E+01      0.8982975496E-01      0.5054572312E-02
          0                 2           5             1    3     1      -0.4392556928E-03       1    1    1      -0.4050210624E+00      0.8658604993E+00      0.8673318007E+01     -0.4392556928E-03
          0                 3           3             1    2     1      -0.2381648337E-04       1    1    1      -0.2207012568E-01      0.4847458889E-01      0.8658604993E+00     -0.2381648337E-04

    ------------------------------------------------
       NWT REQUIRED            3 OUTER ITERATIONS 
       AND A TOTAL OF         14 INNER ITERATIONS.
    ------------------------------------------------
                                                   Max.-Head-Change                        Max.-Flux-Residual
  Residual-Control   Outer-Iter.   Inner-Iter.     Column Row Layer    Max.-Head-Change    Column Row Layer    Max.-Flux-Residual            L2-New               L2-Old           Solver-Max-Delh
          0                 1           6             1    5     2       0.2842654570E-02       1    5    1       0.1677996385E+01      0.4680653390E+01      0.4847458889E-01      0.2842654570E-02
          0                 2           4             1    5     2      -0.2446565193E-03       1    5    1      -0.1679784078E+00      0.4642511150E+00      0.4680653390E+01     -0.2446565193E-03
          0                 3           2             1    1     1      -0.1175817609E-04       1    1    1      -0.1351334224E-01      0.2785096631E-01      0.4642511150E+00     -0.1175817609E-04

    ------------------------------------------------
       NWT REQUIRED            3 OUTER ITERATIONS 
       AND A TOTAL OF         12 INNER ITERATIONS.
    ------------------------------------------------
                                                   Max.-Head-Change                        Max.-Flux-Residual
  Residual-Control   Outer-Iter.   Inner-Iter.     Column Row Layer    Max.-Head-Change    Column Row Layer    Max.-Flux-Residual            L2-New               L2-Old           Solver-Max-Delh
          0                 1           5             1    5     2       0.1342848977E-02       1    9    1       0.9144978615E+00      0.2515930755E+01      0.2785096631E-01      0.1342848977E-02
          0                 2           4             1    5     2      -0.1142541017E-03       1    9    1      -0.8228954586E-01      0.2405393259E+00      0.2515930755E+01     -0.1142541017E-03
          0                 3           2             1    6     1      -0.1063034094E-04       1    6    1      -0.8338472340E-02      0.2257148655E-01      0.2405393259E+00     -0.1063034094E-04

    ------------------------------------------------
       NWT REQUIRED            3 OUTER ITERATIONS 
       AND A TOTAL OF         11 INNER ITERATIONS.
    ------------------------------------------------
                                                   Max.-Head-Change                        Max.-Flux-Residual
  Residual-Control   Outer-Iter.   Inner-Iter.     Column Row Layer    Max.-Head-Change    Column Row Layer    Max.-Flux-Residual            L2-New               L2-Old           Solver-Max-Delh
          0                 1           5             9    9     2      -0.7591000633E-03       1    9    1       0.5836122171E+00      0.1346791614E+01      0.2257148655E-01     -0.7591000633E-03
          0                 2           3             9    9     2       0.6462676091E-04       1    9    1      -0.5600873759E-01      0.1339179337E+00      0.1346791614E+01      0.6462676091E-04

    ------------------------------------------------
       NWT REQUIRED            2 OUTER ITERATIONS 
       AND A TOTAL OF          8 INNER ITERATIONS.
    ------------------------------------------------
                                                   Max.-Head-Change                        Max.-Flux-Residual
  Residual-Control   Outer-Iter.   Inner-Iter.     Column Row Layer    Max.-Head-Change    Column Row Layer    Max.-Flux-Residual            L2-New               L2-Old           Solver-Max-Delh
          0                 1           4             9    9     2      -0.4263327501E-03       1    9    1       0.3079545404E+00      0.6742284038E+00      0.1339179337E+00     -0.4263327501E-03
          0                 2           3             9    9     2       0.3602333265E-04       1    9    1      -0.3100073885E-01      0.6556554695E-01      0.6742284038E+00      0.3602333265E-04

    ------------------------------------------------
       NWT REQUIRED            2 OUTER ITERATIONS 
       AND A TOTAL OF          7 INNER ITERATIONS.
    ------------------------------------------------
                                                   Max.-Head-Change                        Max.-Flux-Residual
  Residual-Control   Outer-Iter.   Inner-Iter.     Column Row Layer    Max.-Head-Change    Column Row Layer    Max.-Flux-Residual            L2-New               L2-Old           Solver-Max-Delh
          0                 1           4             1    9     1       0.1563903918E-03       1    9    1       0.1547418061E+00      0.3189870812E+00      0.6556554695E-01      0.1563903918E-03
          0                 2           2             9    1     1       0.1466318637E-04       2    9    1      -0.1553878200E-01      0.4008226510E-01      0.3189870812E+00      0.1466318637E-04

    ------------------------------------------------
       NWT REQUIRED            2 OUTER ITERATIONS 
       AND A TOTAL OF          6 INNER ITERATIONS.
    ------------------------------------------------
          0                 1           4             9    9     3       0.8992600644E-04       1    9    1       0.8803529700E-01      0.1899503895E+00      0.4008226510E-01      0.8992600644E-04

    ------------------------------------------------
       NWT REQUIRED            1 OUTER ITERATIONS 
       AND A TOTAL OF          4 INNER ITERATIONS.
    ------------------------------------------------

 OUTPUT CONTROL FOR STRESS PERIOD      6   TIME STEP     1
    SAVE BUDGET
 UBDSV1 SAVING "         STORAGE" ON UNIT7011 AT TIME STEP    1, STRESS PERIOD   6
 UBDSV2 SAVING "   CONSTANT HEAD" ON UNIT7011 AT TIME STEP    1, STRESS PERIOD   6
 UBDSV1 SAVING "FLOW RIGHT FACE " ON UNIT7011 AT TIME STEP    1, STRESS PERIOD   6
 UBDSV1 SAVING "FLOW FRONT FACE " ON UNIT7011 AT TIME STEP    1, STRESS PERIOD   6
 UBDSV1 SAVING "FLOW LOWER FACE " ON UNIT7011 AT TIME STEP    1, STRESS PERIOD   6
 
 
 
 
 
 
 
 
 UBDSV3 SAVING "FARM  NET  RECH." ON UNIT7011 AT TIME STEP    1, STRESS PERIOD   6
 UBDSV4 SAVING " GHOST-NODE HEAD" ON UNIT7011 AT TIME STEP    1, STRESS PERIOD   6
1
  FLUX ACROSS PARENT-CHILD INTERFACE AT TIME STEP  1 IN STRESS PERIOD    6
  ------------------------------------------------------------------------
 G-N FLUX        PARENT        CHILD         DIFFERENCE      % DIFFERENCE
  RATE IN:      6.8041E+03    6.8041E+03    -5.4199E-02       -0.0008
 RATE OUT:      2.5755E+03    2.5756E+03    -1.2793E-01       -0.0050
 
 SOLVING FOR HEAD 
                                                   Max.-Head-Change                        Max.-Flux-Residual
  Residual-Control   Outer-Iter.   Inner-Iter.     Column Row Layer    Max.-Head-Change    Column Row Layer    Max.-Flux-Residual            L2-New               L2-Old           Solver-Max-Delh
          0                 1           9             8    8     1      -0.6431944319E+00       8    8    1      -0.7690426306E+03      0.1092725162E+04      0.1899503895E+00     -0.6431944319E+00
          0                 2           8             8    8     1       0.5348821725E-01       2    8    1       0.7355540860E+02      0.1042772336E+03      0.1092725162E+04      0.5348821725E-01
          0                 3           6             8    8     1       0.2725041363E-02       2    8    1       0.3655826569E+01      0.5186545557E+01      0.1042772336E+03      0.2725041363E-02
          0                 4           4             8    8     1       0.1384387313E-03       2    8    1       0.1827367730E+00      0.2602841066E+00      0.5186545557E+01      0.1384387313E-03
          0                 5           2             8    8     1       0.8086884893E-05       2    8    1       0.9108795843E-02      0.1763189695E-01      0.2602841066E+00      0.8086884893E-05

    ------------------------------------------------
       NWT REQUIRED            5 OUTER ITERATIONS 
       AND A TOTAL OF         29 INNER ITERATIONS.
    ------------------------------------------------
                                                   Max.-Head-Change                        Max.-Flux-Residual
  Residual-Control   Outer-Iter.   Inner-Iter.     Column Row Layer    Max.-Head-Change    Column Row Layer    Max.-Flux-Residual            L2-New               L2-Old           Solver-Max-Delh
          0                 1           9             8    8     1       0.5747648799E+00       2    8    1       0.7464057217E+03      0.1059870485E+04      0.1763189695E-01      0.5747648799E+00
          0                 2           8             8    8     1      -0.5018311878E-01       8    8    1      -0.7787728067E+02      0.1098211588E+03      0.1059870485E+04     -0.5018311878E-01
          0                 3           5             8    8     1      -0.2560778297E-02       8    8    1      -0.3918585818E+01      0.5513113594E+01      0.1098211588E+03     -0.2560778297E-02
          0                 4           4             8    8     1      -0.1270341828E-03       8    8    1      -0.1960490634E+00      0.2762929547E+00      0.5513113594E+01     -0.1270341828E-03
          0                 5           2             8    8     1      -0.8352990123E-05       8    8    1      -0.9776311810E-02      0.1785273900E-01      0.2762929547E+00     -0.8352990123E-05

    ------------------------------------------------
       NWT REQUIRED            5 OUTER ITERATIONS 
       AND A TOTAL OF         28 INNER ITERATIONS.
    ------------------------------------------------
                                                   Max.-Head-Change                        Max.-Flux-Residual
  Residual-Control   Outer-Iter.   Inner-Iter.     Column Row Layer    Max.-Head-Change    Column Row Layer    Max.-Flux-Residual            L2-New               L2-Old           Solver-Max-Delh
          0                 1           7             9    9     2       0.1583561973E-01       8    9    1       0.8832198098E+01      0.2070361797E+02      0.1785273900E-01      0.1583561973E-01
          0                 2           5             9    9     2      -0.1359538493E-02       8    9    1      -0.8508798737E+00      0.2037287987E+01      0.2070361797E+02     -0.1359538493E-02
          0                 3           4             9    9     2      -0.6970294222E-04       8    9    1      -0.5031093839E-01      0.1065901102E+00      0.2037287987E+01     -0.6970294222E-04

    ------------------------------------------------
       NWT REQUIRED            3 OUTER ITERATIONS 
       AND A TOTAL OF         16 INNER ITERATIONS.
    ------------------------------------------------
                                                   Max.-Head-Change                        Max.-Flux-Residual
  Residual-Control   Outer-Iter.   Inner-Iter.     Column Row Layer    Max.-Head-Change    Column Row Layer    Max.-Flux-Residual            L2-New               L2-Old           Solver-Max-Delh
          0                 1           7             9    9     1       0.1859522728E-01       8    9    1       0.1062709860E+02      0.2562580897E+02      0.1065901102E+00      0.1859522728E-01
          0                 2           5             9    9     1      -0.1548221527E-02       7    9    1      -0.1033211757E+01      0.2492027303E+01      0.2562580897E+02     -0.1548221527E-02
          0                 3           4             9    9     1      -0.8797465951E-04       9    9    1      -0.6116709918E-01      0.1362327071E+00      0.2492027303E+01     -0.8797465951E-04

    ------------------------------------------------
       NWT REQUIRED            3 OUTER ITERATIONS 
       AND A TOTAL OF         16 INNER ITERATIONS.
    ------------------------------------------------
                                                   Max.-Head-Change                        Max.-Flux-Residual
  Residual-Control   Outer-Iter.   Inner-Iter.     Column Row Layer    Max.-Head-Change    Column Row Layer    Max.-Flux-Residual            L2-New               L2-Old           Solver-Max-Delh
          0                 1           7             9    9     1       0.1037430827E-01       1    9    1       0.7943063969E+01      0.1867184627E+02      0.1362327071E+00      0.1037430827E-01
          0                 2           5             9    9     1      -0.8600974546E-03       1    9    1      -0.7730300670E+00      0.1811638076E+01      0.1867184627E+02     -0.8600974546E-03
          0                 3           4             9    9     1      -0.4515584326E-04       1    9    1      -0.4285026790E-01      0.9627514186E-01      0.1811638076E+01     -0.4515584326E-04

    ------------------------------------------------
       NWT REQUIRED            3 OUTER ITERATIONS 
       AND A TOTAL OF         16 INNER ITERATIONS.
    ------------------------------------------------
                                                   Max.-Head-Change                        Max.-Flux-Residual
  Residual-Control   Outer-Iter.   Inner-Iter.     Column Row Layer    Max.-Head-Change    Column Row Layer    Max.-Flux-Residual            L2-New               L2-Old           Solver-Max-Delh
          0                 1           6             1    9     1       0.6162934470E-02       1    9    1       0.5413194765E+01      0.1040427032E+02      0.9627514186E-01      0.6162934470E-02
          0                 2           5             1    9     1      -0.5210484302E-03       1    9    1      -0.5335620661E+00      0.1020923032E+01      0.1040427032E+02     -0.5210484302E-03
          0                 3           3             1    9     1      -0.2813638838E-04       1    9    1      -0.2916647570E-01      0.5404758476E-01      0.1020923032E+01     -0.2813638838E-04

    ------------------------------------------------
       NWT REQUIRED            3 OUTER ITERATIONS 
       AND A TOTAL OF         14 INNER ITERATIONS.
    ------------------------------------------------
                                                   Max.-Head-Change                        Max.-Flux-Residual
  Residual-Control   Outer-Iter.   Inner-Iter.     Column Row Layer    Max.-Head-Change    Column Row Layer    Max.-Flux-Residual            L2-New               L2-Old           Solver-Max-Delh
          0                 1           6             1    9     1       0.3334319052E-02       1    9    1       0.3012932859E+01      0.5361817376E+01      0.5404758476E-01      0.3334319052E-02
          0                 2           4             1    9     1      -0.2795310739E-03       1    9    1      -0.2940099336E+00      0.5260831440E+00      0.5361817376E+01     -0.2795310739E-03
          0                 3           3             1    7     1      -0.1655666486E-04       1    7    1      -0.1554368436E-01      0.3047396116E-01      0.5260831440E+00     -0.1655666486E-04

    ------------------------------------------------
       NWT REQUIRED            3 OUTER ITERATIONS 
       AND A TOTAL OF         13 INNER ITERATIONS.
    ------------------------------------------------
                                                   Max.-Head-Change                        Max.-Flux-Residual
  Residual-Control   Outer-Iter.   Inner-Iter.     Column Row Layer    Max.-Head-Change    Column Row Layer    Max.-Flux-Residual            L2-New               L2-Old           Solver-Max-Delh
          0                 1           5             1    9     1       0.1589966393E-02       1    9    1       0.1483901585E+01      0.2727851175E+01      0.3047396116E-01      0.1589966393E-02
          0                 2           4             1    9     1      -0.1314130893E-03       1    9    1      -0.1399095409E+00      0.2614781576E+00      0.2727851175E+01     -0.1314130893E-03
          0                 3           2             1    9     1      -0.1187086498E-04       1    9    1      -0.1397203340E-01      0.2938848168E-01      0.2614781576E+00     -0.1187086498E-04

    ------------------------------------------------
       NWT REQUIRED            3 OUTER ITERATIONS 
       AND A TOTAL OF         11 INNER ITERATIONS.
    ------------------------------------------------
                                                   Max.-Head-Change                        Max.-Flux-Residual
  Residual-Control   Outer-Iter.   Inner-Iter.     Column Row Layer    Max.-Head-Change    Column Row Layer    Max.-Flux-Residual            L2-New               L2-Old           Solver-Max-Delh
          0                 1           5             1    9     1       0.6815164706E-03       1    9    1       0.6592132383E+00      0.1289560058E+01      0.2938848168E-01      0.6815164706E-03
          0                 2           3             9    9     2       0.5465060925E-04       1    9    1      -0.5991055246E-01      0.1244221907E+00      0.1289560058E+01      0.5465060925E-04

    ------------------------------------------------
       NWT REQUIRED            2 OUTER ITERATIONS 
       AND A TOTAL OF          8 INNER ITERATIONS.
    ------------------------------------------------
                                                   Max.-Head-Change                        Max.-Flux-Residual
  Residual-Control   Outer-Iter.   Inner-Iter.     Column Row Layer    Max.-Head-Change    Column Row Layer    Max.-Flux-Residual            L2-New               L2-Old           Solver-Max-Delh
          0                 1           4             1    9     1       0.2511520998E-03       1    9    1       0.2401115296E+00      0.5004258109E+00      0.1244221907E+00      0.2511520998E-03
          0                 2           2             9    9     1       0.2329094729E-04       1    9    1      -0.2828831226E-01      0.5636573001E-01      0.5004258109E+00      0.2329094729E-04

    ------------------------------------------------
       NWT REQUIRED            2 OUTER ITERATIONS 
       AND A TOTAL OF          6 INNER ITERATIONS.
    ------------------------------------------------
                                                   Max.-Head-Change                        Max.-Flux-Residual
  Residual-Control   Outer-Iter.   Inner-Iter.     Column Row Layer    Max.-Head-Change    Column Row Layer    Max.-Flux-Residual            L2-New               L2-Old           Solver-Max-Delh
          0                 1           4             5    9     3       0.1196451580E-03       1    9    1       0.1027646973E+00      0.1822108428E+00      0.5636573001E-01      0.1196451580E-03
          0                 2           2             1    9     1      -0.1355883641E-04       1    9    1      -0.1724269945E-01      0.2910209230E-01      0.1822108428E+00     -0.1355883641E-04

    ------------------------------------------------
       NWT REQUIRED            2 OUTER ITERATIONS 
       AND A TOTAL OF          6 INNER ITERATIONS.
    ------------------------------------------------

 OUTPUT CONTROL FOR STRESS PERIOD      6   TIME STEP     2
    PRINT BUDGET
    SAVE HEAD FOR ALL LAYERS
    SAVE BUDGET
 UBDSV1 SAVING "         STORAGE" ON UNIT7011 AT TIME STEP    2, STRESS PERIOD   6
 UBDSV2 SAVING "   CONSTANT HEAD" ON UNIT7011 AT TIME STEP    2, STRESS PERIOD   6
 UBDSV1 SAVING "FLOW RIGHT FACE " ON UNIT7011 AT TIME STEP    2, STRESS PERIOD   6
 UBDSV1 SAVING "FLOW FRONT FACE " ON UNIT7011 AT TIME STEP    2, STRESS PERIOD   6
 UBDSV1 SAVING "FLOW LOWER FACE " ON UNIT7011 AT TIME STEP    2, STRESS PERIOD   6
 
 
 
 
 
 
 
 
 UBDSV3 SAVING "FARM  NET  RECH." ON UNIT7011 AT TIME STEP    2, STRESS PERIOD   6
 UBDSV4 SAVING " GHOST-NODE HEAD" ON UNIT7011 AT TIME STEP    2, STRESS PERIOD   6

 HEAD WILL BE SAVED ON UNIT 2211 AT END OF TIME STEP     2, STRESS PERIOD      6
1
  VOLUMETRIC BUDGET FOR ENTIRE MODEL AT END OF TIME STEP    2 IN STRESS PERIOD      6
  ------------------------------------------------------------------------------

     CUMULATIVE VOLUMES      L**3       RATES FOR THIS TIME STEP      L**3/T
     ------------------                 ------------------------

           IN:                                      IN:
           ---                                      ---
             STORAGE =       75423.4453               STORAGE =          61.9850
       CONSTANT HEAD =           0.0000         CONSTANT HEAD =           0.0000
          FARM WELLS =           0.0000            FARM WELLS =           0.0000
    FARM  NET  RECH. =      460365.0312      FARM  NET  RECH. =        4208.1152
     GHOST-NODE HEAD =     3855060.5000       GHOST-NODE HEAD =        6795.7769

            TOTAL IN =     4390849.0000              TOTAL IN =       11065.8770

          OUT:                                     OUT:
          ----                                     ----
             STORAGE =     3593444.5000               STORAGE =          52.4263
       CONSTANT HEAD =           0.0000         CONSTANT HEAD =           0.0000
          FARM WELLS =      515401.4375            FARM WELLS =        8507.1895
    FARM  NET  RECH. =           0.0000      FARM  NET  RECH. =           0.0000
     GHOST-NODE HEAD =      282001.2500       GHOST-NODE HEAD =        2506.2458

           TOTAL OUT =     4390847.0000             TOTAL OUT =       11065.8623

            IN - OUT =           2.0000              IN - OUT =       1.4648E-02

 PERCENT DISCREPANCY =           0.00     PERCENT DISCREPANCY =           0.00






          TIME SUMMARY AT END OF TIME STEP     2 IN STRESS PERIOD      6
                    SECONDS     MINUTES      HOURS       DAYS        YEARS
                    -----------------------------------------------------------
   TIME STEP LENGTH 1.31414E+06  21902.      365.04      15.210     4.16427E-02
 STRESS PERIOD TIME 2.62829E+06  43805.      730.08      30.420     8.32854E-02
         TOTAL TIME 1.57697E+07 2.62829E+05  4380.5      182.52     0.49971    
1
1
  FLUX ACROSS PARENT-CHILD INTERFACE AT TIME STEP  2 IN STRESS PERIOD    6
  ------------------------------------------------------------------------
 G-N FLUX        PARENT        CHILD         DIFFERENCE      % DIFFERENCE
  RATE IN:      6.7957E+03    6.7958E+03    -1.2256E-01       -0.0018
 RATE OUT:      2.5063E+03    2.5062E+03     8.4717E-02        0.0034
1
                            STRESS PERIOD NO.      7, LENGTH =   30.42000    
                            -----------------------------------------------

                              NUMBER OF TIME STEPS =     2

                               MULTIPLIER FOR DELT =     1.000

                            INITIAL TIME STEP SIZE =   15.21000    

 Parameter:  WELLS1
 WELL NO. LAYER    ROW    COL  F-WELL ID    FARM ID         QMAX         QMAXRESET       LGRGRID         
 --------------------------------------------------------------------------------------------------------
       1      1      8      2          2          1      5.0000E+03              0              0
       2      1      8      8          3          1      5.0000E+03              0              0

 NUMBER OF ACTIVE FARM WELLS:        2

 FARM-ID  NUMBER OF WELLS PER FARM  TOTAL MAX.CAPACITY PER FARM
       1                         2                   10000.0000
       2                         0                       0.0000
       3                         0                       0.0000
       4                         0                       0.0000
       5                         0                       0.0000
       6                         0                       0.0000
       7                         0                       0.0000
       8                         0                       0.0000

Transpiratory and Evaporative Fractions of Crop Consumptive Use
    % Transpiration % Evap. for Precip. % Evap. for Irrig.
    2          0.950          0.050          0.050
    3          0.000          1.000          1.000

FRACTIONS OF IN-EFFICIENT LOSSES TO SW-RUNOFF FROM 
     PRECIPITATION:  IRRIGATION:
    2          0.400          0.300
    3          0.600          0.500
 
 SOLVING FOR HEAD 
                                                   Max.-Head-Change                        Max.-Flux-Residual
  Residual-Control   Outer-Iter.   Inner-Iter.     Column Row Layer    Max.-Head-Change    Column Row Layer    Max.-Flux-Residual            L2-New               L2-Old           Solver-Max-Delh
          0                 1           9             2    8     1      -0.6754779631E+00       2    8    1      -0.7584685691E+03      0.1105524009E+04      0.2910209230E-01     -0.6754779631E+00
          0                 2           8             2    8     1       0.5610077768E-01       2    8    1       0.7151405111E+02      0.1045883987E+03      0.1105524009E+04      0.5610077768E-01
          0                 3           6             2    8     1       0.2869468572E-02       2    8    1       0.3545903300E+01      0.5228155390E+01      0.1045883987E+03      0.2869468572E-02
          0                 4           4             8    8     1       0.1485668168E-03       2    8    1       0.1772194775E+00      0.2634268057E+00      0.5228155390E+01      0.1485668168E-03
          0                 5           2             2    8     1       0.9083094571E-05       8    8    1       0.8835384913E-02      0.2082964862E-01      0.2634268057E+00      0.9083094571E-05

    ------------------------------------------------
       NWT REQUIRED            5 OUTER ITERATIONS 
       AND A TOTAL OF         29 INNER ITERATIONS.
    ------------------------------------------------
                                                   Max.-Head-Change                        Max.-Flux-Residual
  Residual-Control   Outer-Iter.   Inner-Iter.     Column Row Layer    Max.-Head-Change    Column Row Layer    Max.-Flux-Residual            L2-New               L2-Old           Solver-Max-Delh
          0                 1           9             8    8     1       0.9882477328E+00       2    8    1       0.1403138491E+04      0.2010529222E+04      0.2082964862E-01      0.9882477328E+00
          0                 2           8             8    8     1      -0.8210563208E-01       8    8    1      -0.1417564604E+03      0.2011389332E+03      0.2010529222E+04     -0.8210563208E-01
          0                 3           6             8    8     1      -0.4171800545E-02       8    8    1      -0.7153570087E+01      0.1012133410E+02      0.2011389332E+03     -0.4171800545E-02
          0                 4           4             8    8     1      -0.2131292594E-03       8    8    1      -0.3577630941E+00      0.5053854290E+00      0.1012133410E+02     -0.2131292594E-03
          0                 5           2             8    8     1      -0.9560036624E-05       8    8    1      -0.1785580203E-01      0.2742583219E-01      0.5053854290E+00     -0.9560036624E-05

    ------------------------------------------------
       NWT REQUIRED            5 OUTER ITERATIONS 
       AND A TOTAL OF         29 INNER ITERATIONS.
    ------------------------------------------------
                                                   Max.-Head-Change                        Max.-Flux-Residual
  Residual-Control   Outer-Iter.   Inner-Iter.     Column Row Layer    Max.-Head-Change    Column Row Layer    Max.-Flux-Residual            L2-New               L2-Old           Solver-Max-Delh
          0                 1           7             2    9     1      -0.1631369771E-01       1    9    1      -0.1377029231E+02      0.3345253563E+02      0.2742583219E-01     -0.1631369771E-01
          0                 2           5             2    9     1       0.1376352649E-02       1    9    1       0.1348234248E+01      0.3305381500E+01      0.3345253563E+02      0.1376352649E-02
          0                 3           4             4    9     1       0.7147445457E-04       1    9    1       0.6873320136E-01      0.1680210545E+00      0.3305381500E+01      0.7147445457E-04

    ------------------------------------------------
       NWT REQUIRED            3 OUTER ITERATIONS 
       AND A TOTAL OF         16 INNER ITERATIONS.
    ------------------------------------------------
                                                   Max.-Head-Change                        Max.-Flux-Residual
  Residual-Control   Outer-Iter.   Inner-Iter.     Column Row Layer    Max.-Head-Change    Column Row Layer    Max.-Flux-Residual            L2-New               L2-Old           Solver-Max-Delh
          0                 1           8             9    9     1       0.3703328200E-01       1    9    1       0.2112632209E+02      0.5513752131E+02      0.1680210545E+00      0.3703328200E-01
          0                 2           6             9    9     1      -0.3105702387E-02       1    9    1      -0.2068572048E+01      0.5370366977E+01      0.5513752131E+02     -0.3105702387E-02
          0                 3           4             8    9     1      -0.1629380057E-03       8    9    1      -0.1130944566E+00      0.2839887590E+00      0.5370366977E+01     -0.1629380057E-03
          0                 4           2             7    9     1      -0.8831342172E-05       7    9    1      -0.9159749723E-02      0.2061349612E-01      0.2839887590E+00     -0.8831342172E-05

    ------------------------------------------------
       NWT REQUIRED            4 OUTER ITERATIONS 
       AND A TOTAL OF         20 INNER ITERATIONS.
    ------------------------------------------------
                                                   Max.-Head-Change                        Max.-Flux-Residual
  Residual-Control   Outer-Iter.   Inner-Iter.     Column Row Layer    Max.-Head-Change    Column Row Layer    Max.-Flux-Residual            L2-New               L2-Old           Solver-Max-Delh
          0                 1           8             9    9     1       0.2836653449E-01       1    9    1       0.2233367644E+02      0.4993214056E+02      0.2061349612E-01      0.2836653449E-01
          0                 2           6             9    9     1      -0.2378577176E-02       1    9    1      -0.2190583279E+01      0.4877710040E+01      0.4993214056E+02     -0.2378577176E-02
          0                 3           4             9    9     1      -0.1250173927E-03       1    9    1      -0.1162430582E+00      0.2537687737E+00      0.4877710040E+01     -0.1250173927E-03
          0                 4           2             4    9     1      -0.9664694684E-05       1    4    1      -0.8798167109E-02      0.2247608660E-01      0.2537687737E+00     -0.9664694684E-05

    ------------------------------------------------
       NWT REQUIRED            4 OUTER ITERATIONS 
       AND A TOTAL OF         20 INNER ITERATIONS.
    ------------------------------------------------
                                                   Max.-Head-Change                        Max.-Flux-Residual
  Residual-Control   Outer-Iter.   Inner-Iter.     Column Row Layer    Max.-Head-Change    Column Row Layer    Max.-Flux-Residual            L2-New               L2-Old           Solver-Max-Delh
          0                 1           7             1    9     1       0.1714055594E-01       1    9    1       0.1497464702E+02      0.2895622970E+02      0.2247608660E-01      0.1714055594E-01
          0                 2           5             1    9     1      -0.1442811353E-02       1    9    1      -0.1459671158E+01      0.2828298735E+01      0.2895622970E+02     -0.1442811353E-02
          0                 3           4             1    9     1      -0.8017039035E-04       1    9    1      -0.8449052199E-01      0.1527428139E+00      0.2828298735E+01     -0.8017039035E-04

    ------------------------------------------------
       NWT REQUIRED            3 OUTER ITERATIONS 
       AND A TOTAL OF         16 INNER ITERATIONS.
    ------------------------------------------------
                                                   Max.-Head-Change                        Max.-Flux-Residual
  Residual-Control   Outer-Iter.   Inner-Iter.     Column Row Layer    Max.-Head-Change    Column Row Layer    Max.-Flux-Residual            L2-New               L2-Old           Solver-Max-Delh
          0                 1           7             1    9     1       0.9193736031E-02       1    9    1       0.8219076902E+01      0.1441148036E+02      0.1527428139E+00      0.9193736031E-02
          0                 2           5             1    9     1      -0.7718935106E-03       1    9    1      -0.7960584693E+00      0.1409952114E+01      0.1441148036E+02     -0.7718935106E-03
          0                 3           3             1    9     1      -0.4308813747E-04       1    9    1      -0.4688199837E-01      0.7785287992E-01      0.1409952114E+01     -0.4308813747E-04

    ------------------------------------------------
       NWT REQUIRED            3 OUTER ITERATIONS 
       AND A TOTAL OF         15 INNER ITERATIONS.
    ------------------------------------------------
                                                   Max.-Head-Change                        Max.-Flux-Residual
  Residual-Control   Outer-Iter.   Inner-Iter.     Column Row Layer    Max.-Head-Change    Column Row Layer    Max.-Flux-Residual            L2-New               L2-Old           Solver-Max-Delh
          0                 1           6             1    9     1       0.4322975498E-02       1    9    1       0.3970505765E+01      0.7234570098E+01      0.7785287992E-01      0.4322975498E-02
          0                 2           5             1    9     1      -0.3655305778E-03       1    9    1      -0.3876887824E+00      0.7132926228E+00      0.7234570098E+01     -0.3655305778E-03
          0                 3           3             1    8     1      -0.1864211656E-04       1    9    1      -0.1599476009E-01      0.3936633270E-01      0.7132926228E+00     -0.1864211656E-04

    ------------------------------------------------
       NWT REQUIRED            3 OUTER ITERATIONS 
       AND A TOTAL OF         14 INNER ITERATIONS.
    ------------------------------------------------
                                                   Max.-Head-Change                        Max.-Flux-Residual
  Residual-Control   Outer-Iter.   Inner-Iter.     Column Row Layer    Max.-Head-Change    Column Row Layer    Max.-Flux-Residual            L2-New               L2-Old           Solver-Max-Delh
          0                 1           6             1    9     1       0.1840471464E-02       1    9    1       0.1722842742E+01      0.3539143892E+01      0.3936633270E-01      0.1840471464E-02
          0                 2           4             1    9     1      -0.1573466917E-03       1    9    1      -0.1702648937E+00      0.3487018188E+00      0.3539143892E+01     -0.1573466917E-03
          0                 3           2             1    9     1      -0.1150668050E-04       1    9    1      -0.1377221092E-01      0.2771409832E-01      0.3487018188E+00     -0.1150668050E-04

    ------------------------------------------------
       NWT REQUIRED            3 OUTER ITERATIONS 
       AND A TOTAL OF         12 INNER ITERATIONS.
    ------------------------------------------------
                                                   Max.-Head-Change                        Max.-Flux-Residual
  Residual-Control   Outer-Iter.   Inner-Iter.     Column Row Layer    Max.-Head-Change    Column Row Layer    Max.-Flux-Residual            L2-New               L2-Old           Solver-Max-Delh
          0                 1           5             1    9     1       0.7369207524E-03       1    9    1       0.6969775960E+00      0.1485453643E+01      0.2771409832E-01      0.7369207524E-03
          0                 2           4             1    9     1      -0.6463821155E-04       1    9    1      -0.7473134657E-01      0.1510881238E+00      0.1485453643E+01     -0.6463821155E-04

    ------------------------------------------------
       NWT REQUIRED            2 OUTER ITERATIONS 
       AND A TOTAL OF          9 INNER ITERATIONS.
    ------------------------------------------------
                                                   Max.-Head-Change                        Max.-Flux-Residual
  Residual-Control   Outer-Iter.   Inner-Iter.     Column Row Layer    Max.-Head-Change    Column Row Layer    Max.-Flux-Residual            L2-New               L2-Old           Solver-Max-Delh
          0                 1           4             1    9     1       0.2487760133E-03       1    9    1       0.2356791692E+00      0.4748808357E+00      0.1510881238E+00      0.2487760133E-03
          0                 2           3             1    9     1      -0.2295614635E-04       1    9    1      -0.2521596575E-01      0.5169168564E-01      0.4748808357E+00     -0.2295614635E-04

    ------------------------------------------------
       NWT REQUIRED            2 OUTER ITERATIONS 
       AND A TOTAL OF          7 INNER ITERATIONS.
    ------------------------------------------------

 OUTPUT CONTROL FOR STRESS PERIOD      7   TIME STEP     1
    SAVE BUDGET
 UBDSV1 SAVING "         STORAGE" ON UNIT7011 AT TIME STEP    1, STRESS PERIOD   7
 UBDSV2 SAVING "   CONSTANT HEAD" ON UNIT7011 AT TIME STEP    1, STRESS PERIOD   7
 UBDSV1 SAVING "FLOW RIGHT FACE " ON UNIT7011 AT TIME STEP    1, STRESS PERIOD   7
 UBDSV1 SAVING "FLOW FRONT FACE " ON UNIT7011 AT TIME STEP    1, STRESS PERIOD   7
 UBDSV1 SAVING "FLOW LOWER FACE " ON UNIT7011 AT TIME STEP    1, STRESS PERIOD   7
 
 
 
 
 
 
 
 
 UBDSV3 SAVING "FARM  NET  RECH." ON UNIT7011 AT TIME STEP    1, STRESS PERIOD   7
 UBDSV4 SAVING " GHOST-NODE HEAD" ON UNIT7011 AT TIME STEP    1, STRESS PERIOD   7
1
  FLUX ACROSS PARENT-CHILD INTERFACE AT TIME STEP  1 IN STRESS PERIOD    7
  ------------------------------------------------------------------------
 G-N FLUX        PARENT        CHILD         DIFFERENCE      % DIFFERENCE
  RATE IN:      5.7817E+03    5.7818E+03    -9.3750E-02       -0.0016
 RATE OUT:      2.4476E+03    2.4472E+03     3.8647E-01        0.0158
 
 SOLVING FOR HEAD 
                                                   Max.-Head-Change                        Max.-Flux-Residual
  Residual-Control   Outer-Iter.   Inner-Iter.     Column Row Layer    Max.-Head-Change    Column Row Layer    Max.-Flux-Residual            L2-New               L2-Old           Solver-Max-Delh
          0                 1           9             8    8     1      -0.1103409842E+01       2    8    1      -0.1404996804E+04      0.1986836062E+04      0.5169168564E-01     -0.1103409842E+01
          0                 2           8             8    8     1       0.9027889867E-01       2    8    1       0.1307171594E+03      0.1834418815E+03      0.1986836062E+04      0.9027889867E-01
          0                 3           6             8    8     1       0.4577462980E-02       2    8    1       0.6469416723E+01      0.9076563717E+01      0.1834418815E+03      0.4577462980E-02
          0                 4           4             8    8     1       0.2331990295E-03       2    8    1       0.3232230793E+00      0.4540419293E+00      0.9076563717E+01      0.2331990295E-03
          0                 5           3             8    8     1       0.1350455084E-04       2    8    1       0.1619084110E-01      0.2828868572E-01      0.4540419293E+00      0.1350455084E-04

    ------------------------------------------------
       NWT REQUIRED            5 OUTER ITERATIONS 
       AND A TOTAL OF         30 INNER ITERATIONS.
    ------------------------------------------------
                                                   Max.-Head-Change                        Max.-Flux-Residual
  Residual-Control   Outer-Iter.   Inner-Iter.     Column Row Layer    Max.-Head-Change    Column Row Layer    Max.-Flux-Residual            L2-New               L2-Old           Solver-Max-Delh
          0                 1           9             8    8     1       0.9975614511E+00       2    8    1       0.1411255075E+04      0.2018665607E+04      0.2828868572E-01      0.9975614511E+00
          0                 2           8             8    8     1      -0.8859915417E-01       8    8    1      -0.1508676911E+03      0.2136601296E+03      0.2018665607E+04     -0.8859915417E-01
          0                 3           6             8    8     1      -0.4507652990E-02       8    8    1      -0.7620106352E+01      0.1076050087E+02      0.2136601296E+03     -0.4507652990E-02
          0                 4           4             8    8     1      -0.2292095313E-03       8    8    1      -0.3810502227E+00      0.5372088223E+00      0.1076050087E+02     -0.2292095313E-03
          0                 5           2             8    8     1      -0.1089837495E-04       8    8    1      -0.1911211509E-01      0.2920972753E-01      0.5372088223E+00     -0.1089837495E-04

    ------------------------------------------------
       NWT REQUIRED            5 OUTER ITERATIONS 
       AND A TOTAL OF         29 INNER ITERATIONS.
    ------------------------------------------------
                                                   Max.-Head-Change                        Max.-Flux-Residual
  Residual-Control   Outer-Iter.   Inner-Iter.     Column Row Layer    Max.-Head-Change    Column Row Layer    Max.-Flux-Residual            L2-New               L2-Old           Solver-Max-Delh
          0                 1           8             4    9     1      -0.2684592149E-01       1    9    1      -0.2156344001E+02      0.4935548333E+02      0.2920972753E-01     -0.2684592149E-01
          0                 2           6             4    9     1       0.2265879007E-02       1    9    1       0.2114288122E+01      0.4840161076E+01      0.4935548333E+02      0.2265879007E-02
          0                 3           4             4    9     1       0.1200222026E-03       1    9    1       0.1089910722E+00      0.2514140406E+00      0.4840161076E+01      0.1200222026E-03
          0                 4           2             4    1     1       0.8388049058E-05       3    1    1       0.8144522086E-02      0.2294179056E-01      0.2514140406E+00      0.8388049058E-05

    ------------------------------------------------
       NWT REQUIRED            4 OUTER ITERATIONS 
       AND A TOTAL OF         20 INNER ITERATIONS.
    ------------------------------------------------
                                                   Max.-Head-Change                        Max.-Flux-Residual
  Residual-Control   Outer-Iter.   Inner-Iter.     Column Row Layer    Max.-Head-Change    Column Row Layer    Max.-Flux-Residual            L2-New               L2-Old           Solver-Max-Delh
          0                 1           7             9    9     1       0.2435359508E-01       8    9    1       0.1415596041E+02      0.3327031346E+02      0.2294179056E-01      0.2435359508E-01
          0                 2           5             9    9     2      -0.2049053052E-02       8    9    1      -0.1375282497E+01      0.3242830713E+01      0.3327031346E+02     -0.2049053052E-02
          0                 3           4             9    9     1      -0.1103586219E-03       9    9    1      -0.7708798521E-01      0.1701594098E+00      0.3242830713E+01     -0.1103586219E-03
          0                 4           2             5    9     1      -0.5127228695E-05       1    7    1      -0.8103305125E-02      0.1319159078E-01      0.1701594098E+00     -0.5127228695E-05

    ------------------------------------------------
       NWT REQUIRED            4 OUTER ITERATIONS 
       AND A TOTAL OF         18 INNER ITERATIONS.
    ------------------------------------------------
                                                   Max.-Head-Change                        Max.-Flux-Residual
  Residual-Control   Outer-Iter.   Inner-Iter.     Column Row Layer    Max.-Head-Change    Column Row Layer    Max.-Flux-Residual            L2-New               L2-Old           Solver-Max-Delh
          0                 1           7             9    9     1       0.2301320608E-01       1    9    1       0.1477780531E+02      0.3649108571E+02      0.1319159078E-01      0.2301320608E-01
          0                 2           6             9    9     1      -0.1936302148E-02       1    9    1      -0.1444661646E+01      0.3565674013E+01      0.3649108571E+02     -0.1936302148E-02
          0                 3           4             9    9     1      -0.1022835812E-03       1    9    1      -0.6878976757E-01      0.1864315672E+00      0.3565674013E+01     -0.1022835812E-03
          0                 4           2             1    9     1      -0.7803328339E-05       1    9    1      -0.1390153862E-01      0.1756688796E-01      0.1864315672E+00     -0.7803328339E-05

    ------------------------------------------------
       NWT REQUIRED            4 OUTER ITERATIONS 
       AND A TOTAL OF         19 INNER ITERATIONS.
    ------------------------------------------------
                                                   Max.-Head-Change                        Max.-Flux-Residual
  Residual-Control   Outer-Iter.   Inner-Iter.     Column Row Layer    Max.-Head-Change    Column Row Layer    Max.-Flux-Residual            L2-New               L2-Old           Solver-Max-Delh
          0                 1           7             1    9     1       0.1233478264E-01       1    9    1       0.1064996422E+02      0.2214753713E+02      0.1756688796E-01      0.1233478264E-01
          0                 2           5             1    9     1      -0.1039962890E-02       1    9    1      -0.1039587956E+01      0.2162137136E+01      0.2214753713E+02     -0.1039962890E-02
          0                 3           4             1    9     1      -0.5434315340E-04       1    9    1      -0.5519318226E-01      0.1142850392E+00      0.2162137136E+01     -0.5434315340E-04

    ------------------------------------------------
       NWT REQUIRED            3 OUTER ITERATIONS 
       AND A TOTAL OF         16 INNER ITERATIONS.
    ------------------------------------------------
                                                   Max.-Head-Change                        Max.-Flux-Residual
  Residual-Control   Outer-Iter.   Inner-Iter.     Column Row Layer    Max.-Head-Change    Column Row Layer    Max.-Flux-Residual            L2-New               L2-Old           Solver-Max-Delh
          0                 1           6             1    9     1       0.6834523828E-02       1    9    1       0.6039647722E+01      0.1090236995E+02      0.1142850392E+00      0.6834523828E-02
          0                 2           5             1    9     1      -0.5761401878E-03       1    9    1      -0.5931156588E+00      0.1069307012E+01      0.1090236995E+02     -0.5761401878E-03
          0                 3           3             2    9     1      -0.2993915839E-04       1    9    1      -0.2648621175E-01      0.5760796550E-01      0.1069307012E+01     -0.2993915839E-04

    ------------------------------------------------
       NWT REQUIRED            3 OUTER ITERATIONS 
       AND A TOTAL OF         14 INNER ITERATIONS.
    ------------------------------------------------
                                                   Max.-Head-Change                        Max.-Flux-Residual
  Residual-Control   Outer-Iter.   Inner-Iter.     Column Row Layer    Max.-Head-Change    Column Row Layer    Max.-Flux-Residual            L2-New               L2-Old           Solver-Max-Delh
          0                 1           6             1    9     1       0.3292889337E-02       1    9    1       0.2988953074E+01      0.5402123649E+01      0.5760796550E-01      0.3292889337E-02
          0                 2           4             1    9     1      -0.2782057580E-03       1    9    1      -0.2926725628E+00      0.5283827190E+00      0.5402123649E+01     -0.2782057580E-03
          0                 3           3             1    9     1      -0.1943242485E-04       1    9    1      -0.2443939017E-01      0.4039610215E-01      0.5283827190E+00     -0.1943242485E-04

    ------------------------------------------------
       NWT REQUIRED            3 OUTER ITERATIONS 
       AND A TOTAL OF         13 INNER ITERATIONS.
    ------------------------------------------------
                                                   Max.-Head-Change                        Max.-Flux-Residual
  Residual-Control   Outer-Iter.   Inner-Iter.     Column Row Layer    Max.-Head-Change    Column Row Layer    Max.-Flux-Residual            L2-New               L2-Old           Solver-Max-Delh
          0                 1           5             1    9     1       0.1449293532E-02       1    9    1       0.1351396191E+01      0.2748893393E+01      0.4039610215E-01      0.1449293532E-02
          0                 2           4             1    9     1      -0.1213207999E-03       1    9    1      -0.1289726251E+00      0.2650156738E+00      0.2748893393E+01     -0.1213207999E-03
          0                 3           2             1    1     1      -0.1157677842E-04       1    1    1      -0.1508607343E-01      0.2917772812E-01      0.2650156738E+00     -0.1157677842E-04

    ------------------------------------------------
       NWT REQUIRED            3 OUTER ITERATIONS 
       AND A TOTAL OF         11 INNER ITERATIONS.
    ------------------------------------------------
                                                   Max.-Head-Change                        Max.-Flux-Residual
  Residual-Control   Outer-Iter.   Inner-Iter.     Column Row Layer    Max.-Head-Change    Column Row Layer    Max.-Flux-Residual            L2-New               L2-Old           Solver-Max-Delh
          0                 1           5             1    9     1       0.5956875352E-03       1    9    1       0.5613081418E+00      0.1215244596E+01      0.2917772812E-01      0.5956875352E-03
          0                 2           4             1    9     1      -0.4996931439E-04       1    9    1      -0.5231687956E-01      0.1225797665E+00      0.1215244596E+01     -0.4996931439E-04

    ------------------------------------------------
       NWT REQUIRED            2 OUTER ITERATIONS 
       AND A TOTAL OF          9 INNER ITERATIONS.
    ------------------------------------------------
                                                   Max.-Head-Change                        Max.-Flux-Residual
  Residual-Control   Outer-Iter.   Inner-Iter.     Column Row Layer    Max.-Head-Change    Column Row Layer    Max.-Flux-Residual            L2-New               L2-Old           Solver-Max-Delh
          0                 1           4             1    9     1       0.2117179065E-03       1    9    1       0.1949271197E+00      0.4097517317E+00      0.1225797665E+00      0.2117179065E-03
          0                 2           3             2    9     1      -0.1882252595E-04       1    1    1      -0.1726228255E-01      0.4466567316E-01      0.4097517317E+00     -0.1882252595E-04

    ------------------------------------------------
       NWT REQUIRED            2 OUTER ITERATIONS 
       AND A TOTAL OF          7 INNER ITERATIONS.
    ------------------------------------------------

 OUTPUT CONTROL FOR STRESS PERIOD      7   TIME STEP     2
    SAVE BUDGET
 UBDSV1 SAVING "         STORAGE" ON UNIT7011 AT TIME STEP    2, STRESS PERIOD   7
 UBDSV2 SAVING "   CONSTANT HEAD" ON UNIT7011 AT TIME STEP    2, STRESS PERIOD   7
 UBDSV1 SAVING "FLOW RIGHT FACE " ON UNIT7011 AT TIME STEP    2, STRESS PERIOD   7
 UBDSV1 SAVING "FLOW FRONT FACE " ON UNIT7011 AT TIME STEP    2, STRESS PERIOD   7
 UBDSV1 SAVING "FLOW LOWER FACE " ON UNIT7011 AT TIME STEP    2, STRESS PERIOD   7
 
 
 
 
 
 
 
 
 UBDSV3 SAVING "FARM  NET  RECH." ON UNIT7011 AT TIME STEP    2, STRESS PERIOD   7
 UBDSV4 SAVING " GHOST-NODE HEAD" ON UNIT7011 AT TIME STEP    2, STRESS PERIOD   7
1
  VOLUMETRIC BUDGET FOR ENTIRE MODEL AT END OF TIME STEP    2 IN STRESS PERIOD      7
  ------------------------------------------------------------------------------

     CUMULATIVE VOLUMES      L**3       RATES FOR THIS TIME STEP      L**3/T
     ------------------                 ------------------------

           IN:                                      IN:
           ---                                      ---
             STORAGE =       82845.2578               STORAGE =         298.8239
       CONSTANT HEAD =           0.0000         CONSTANT HEAD =           0.0000
          FARM WELLS =           0.0000            FARM WELLS =           0.0000
    FARM  NET  RECH. =      573350.0625      FARM  NET  RECH. =        3714.1694
     GHOST-NODE HEAD =     4027499.7500       GHOST-NODE HEAD =        5555.4731

            TOTAL IN =     4683695.0000              TOTAL IN =        9568.4668

          OUT:                                     OUT:
          ----                                     ----
             STORAGE =     3594362.0000               STORAGE =           0.0000
       CONSTANT HEAD =           0.0000         CONSTANT HEAD =           0.0000
          FARM WELLS =      733740.6875            FARM WELLS =        7177.4912
    FARM  NET  RECH. =           0.0000      FARM  NET  RECH. =           0.0000
     GHOST-NODE HEAD =      355590.5938       GHOST-NODE HEAD =        2390.9771

           TOTAL OUT =     4683693.0000             TOTAL OUT =        9568.4688

            IN - OUT =           2.0000              IN - OUT =      -1.9531E-03

 PERCENT DISCREPANCY =           0.00     PERCENT DISCREPANCY =          -0.00






          TIME SUMMARY AT END OF TIME STEP     2 IN STRESS PERIOD      7
                    SECONDS     MINUTES      HOURS       DAYS        YEARS
                    -----------------------------------------------------------
   TIME STEP LENGTH 1.31414E+06  21902.      365.04      15.210     4.16427E-02
 STRESS PERIOD TIME 2.62829E+06  43805.      730.08      30.420     8.32854E-02
         TOTAL TIME 1.83980E+07 3.06634E+05  5110.6      212.94     0.58300    
1
1
  FLUX ACROSS PARENT-CHILD INTERFACE AT TIME STEP  2 IN STRESS PERIOD    7
  ------------------------------------------------------------------------
 G-N FLUX        PARENT        CHILD         DIFFERENCE      % DIFFERENCE
  RATE IN:      5.5554E+03    5.5555E+03    -6.3965E-02       -0.0012
 RATE OUT:      2.3913E+03    2.3910E+03     3.1226E-01        0.0131
1
                            STRESS PERIOD NO.      8, LENGTH =   30.42000    
                            -----------------------------------------------

                              NUMBER OF TIME STEPS =     2

                               MULTIPLIER FOR DELT =     1.000

                            INITIAL TIME STEP SIZE =   15.21000    

 Parameter:  WELLS1
 WELL NO. LAYER    ROW    COL  F-WELL ID    FARM ID         QMAX         QMAXRESET       LGRGRID         
 --------------------------------------------------------------------------------------------------------
       1      1      8      2          2          1      5.0000E+03              0              0
       2      1      8      8          3          1      5.0000E+03              0              0

 NUMBER OF ACTIVE FARM WELLS:        2

 FARM-ID  NUMBER OF WELLS PER FARM  TOTAL MAX.CAPACITY PER FARM
       1                         2                   10000.0000
       2                         0                       0.0000
       3                         0                       0.0000
       4                         0                       0.0000
       5                         0                       0.0000
       6                         0                       0.0000
       7                         0                       0.0000
       8                         0                       0.0000

Transpiratory and Evaporative Fractions of Crop Consumptive Use
    % Transpiration % Evap. for Precip. % Evap. for Irrig.
    2          0.950          0.050          0.050
    3          0.000          1.000          1.000

FRACTIONS OF IN-EFFICIENT LOSSES TO SW-RUNOFF FROM 
     PRECIPITATION:  IRRIGATION:
    2          0.400          0.300
    3          0.600          0.500
 
 SOLVING FOR HEAD 
                                                   Max.-Head-Change                        Max.-Flux-Residual
  Residual-Control   Outer-Iter.   Inner-Iter.     Column Row Layer    Max.-Head-Change    Column Row Layer    Max.-Flux-Residual            L2-New               L2-Old           Solver-Max-Delh
          0                 1           9             8    8     1      -0.1158045719E+01       2    8    1      -0.1406959040E+04      0.1988814545E+04      0.4466567316E-01     -0.1158045719E+01
          0                 2           8             8    8     1       0.9446738467E-01       2    8    1       0.1301693240E+03      0.1824611586E+03      0.1988814545E+04      0.9446738467E-01
          0                 3           6             8    8     1       0.4796358751E-02       2    8    1       0.6437407081E+01      0.9024025453E+01      0.1824611586E+03      0.4796358751E-02
          0                 4           4             8    8     1       0.2463589920E-03       2    8    1       0.3215937442E+00      0.4517944217E+00      0.9024025453E+01      0.2463589920E-03
          0                 5           2             2    8     1       0.1168309447E-04       2    8    1       0.1602680777E-01      0.2650506327E-01      0.4517944217E+00      0.1168309447E-04

    ------------------------------------------------
       NWT REQUIRED            5 OUTER ITERATIONS 
       AND A TOTAL OF         29 INNER ITERATIONS.
    ------------------------------------------------
                                                   Max.-Head-Change                        Max.-Flux-Residual
  Residual-Control   Outer-Iter.   Inner-Iter.     Column Row Layer    Max.-Head-Change    Column Row Layer    Max.-Flux-Residual            L2-New               L2-Old           Solver-Max-Delh
          0                 1           9             8    8     1       0.1420307728E+01       2    8    1       0.1964172385E+04      0.2799628396E+04      0.2650506327E-01      0.1420307728E+01
          0                 2           8             8    8     1      -0.1338126983E+00       8    8    1      -0.2244820771E+03      0.3157191825E+03      0.2799628396E+04     -0.1338126983E+00
          0                 3           6             8    8     1      -0.6828048678E-02       8    8    1      -0.1139982564E+02      0.1598082057E+02      0.3157191825E+03     -0.6828048678E-02
          0                 4           4             8    8     1      -0.3449565017E-03       8    8    1      -0.5702939457E+00      0.7982182241E+00      0.1598082057E+02     -0.3449565017E-03
          0                 5           2             8    8     1      -0.1504770720E-04       8    8    1      -0.2853619290E-01      0.4152528587E-01      0.7982182241E+00     -0.1504770720E-04

    ------------------------------------------------
       NWT REQUIRED            5 OUTER ITERATIONS 
       AND A TOTAL OF         29 INNER ITERATIONS.
    ------------------------------------------------
                                                   Max.-Head-Change                        Max.-Flux-Residual
  Residual-Control   Outer-Iter.   Inner-Iter.     Column Row Layer    Max.-Head-Change    Column Row Layer    Max.-Flux-Residual            L2-New               L2-Old           Solver-Max-Delh
          0                 1           7             1    1     1      -0.1310665968E-01       1    1    1      -0.1133026538E+02      0.2576319629E+02      0.4152528587E-01     -0.1310665968E-01
          0                 2           5             1    1     1       0.1142164664E-02       1    1    1       0.1142300088E+01      0.2575095149E+01      0.2576319629E+02      0.1142164664E-02
          0                 3           4             3    1     1       0.5114009158E-04       8    9    1      -0.4355265200E-01      0.1274798187E+00      0.2575095149E+01      0.5114009158E-04

    ------------------------------------------------
       NWT REQUIRED            3 OUTER ITERATIONS 
       AND A TOTAL OF         16 INNER ITERATIONS.
    ------------------------------------------------
                                                   Max.-Head-Change                        Max.-Flux-Residual
  Residual-Control   Outer-Iter.   Inner-Iter.     Column Row Layer    Max.-Head-Change    Column Row Layer    Max.-Flux-Residual            L2-New               L2-Old           Solver-Max-Delh
          0                 1           8             9    9     1       0.5584285061E-01       8    9    1       0.3195119784E+02      0.7940753478E+02      0.1274798187E+00      0.5584285061E-01
          0                 2           6             9    9     1      -0.4708135221E-02       7    9    1      -0.3124354700E+01      0.7773303071E+01      0.7940753478E+02     -0.4708135221E-02
          0                 3           4             9    9     1      -0.2471412991E-03       9    9    1      -0.1655497474E+00      0.4056575560E+00      0.7773303071E+01     -0.2471412991E-03
          0                 4           2             9    9     1      -0.1169399220E-04       9    9    1      -0.7768743162E-02      0.2288785748E-01      0.4056575560E+00     -0.1169399220E-04

    ------------------------------------------------
       NWT REQUIRED            4 OUTER ITERATIONS 
       AND A TOTAL OF         20 INNER ITERATIONS.
    ------------------------------------------------
                                                   Max.-Head-Change                        Max.-Flux-Residual
  Residual-Control   Outer-Iter.   Inner-Iter.     Column Row Layer    Max.-Head-Change    Column Row Layer    Max.-Flux-Residual            L2-New               L2-Old           Solver-Max-Delh
          0                 1           8             9    9     1       0.3943534327E-01       1    9    1       0.2686431623E+02      0.6361549605E+02      0.2288785748E-01      0.3943534327E-01
          0                 2           6             9    9     1      -0.3320197897E-02       1    9    1      -0.2634813569E+01      0.6227450326E+01      0.6361549605E+02     -0.3320197897E-02
          0                 3           4             9    9     1      -0.1762459748E-03       1    9    1      -0.1448793549E+00      0.3262655729E+00      0.6227450326E+01     -0.1762459748E-03
          0                 4           2             8    9     1      -0.1081377992E-04       5    9    1      -0.8128123241E-02      0.2340682906E-01      0.3262655729E+00     -0.1081377992E-04

    ------------------------------------------------
       NWT REQUIRED            4 OUTER ITERATIONS 
       AND A TOTAL OF         20 INNER ITERATIONS.
    ------------------------------------------------
                                                   Max.-Head-Change                        Max.-Flux-Residual
  Residual-Control   Outer-Iter.   Inner-Iter.     Column Row Layer    Max.-Head-Change    Column Row Layer    Max.-Flux-Residual            L2-New               L2-Old           Solver-Max-Delh
          0                 1           7             1    9     1       0.1973930735E-01       1    9    1       0.1717176184E+02      0.3425167577E+02      0.2340682906E-01      0.1973930735E-01
          0                 2           6             1    9     1      -0.1674671042E-02       1    9    1      -0.1687943436E+01      0.3360494036E+01      0.3425167577E+02     -0.1674671042E-02
          0                 3           4             1    9     1      -0.8197870132E-04       1    9    1      -0.8382893575E-01      0.1693900029E+00      0.3360494036E+01     -0.8197870132E-04

    ------------------------------------------------
       NWT REQUIRED            3 OUTER ITERATIONS 
       AND A TOTAL OF         17 INNER ITERATIONS.
    ------------------------------------------------
                                                   Max.-Head-Change                        Max.-Flux-Residual
  Residual-Control   Outer-Iter.   Inner-Iter.     Column Row Layer    Max.-Head-Change    Column Row Layer    Max.-Flux-Residual            L2-New               L2-Old           Solver-Max-Delh
          0                 1           7             1    9     1       0.1021143669E-01       1    9    1       0.9108847369E+01      0.1603033665E+02      0.1693900029E+00      0.1021143669E-01
          0                 2           5             1    9     1      -0.8627241834E-03       1    9    1      -0.8913794458E+00      0.1575587200E+01      0.1603033665E+02     -0.8627241834E-03
          0                 3           3             1    9     1      -0.4312356574E-04       1    9    1      -0.4424066789E-01      0.8193254796E-01      0.1575587200E+01     -0.4312356574E-04

    ------------------------------------------------
       NWT REQUIRED            3 OUTER ITERATIONS 
       AND A TOTAL OF         15 INNER ITERATIONS.
    ------------------------------------------------
                                                   Max.-Head-Change                        Max.-Flux-Residual
  Residual-Control   Outer-Iter.   Inner-Iter.     Column Row Layer    Max.-Head-Change    Column Row Layer    Max.-Flux-Residual            L2-New               L2-Old           Solver-Max-Delh
          0                 1           6             1    9     1       0.4680018041E-02       1    9    1       0.4301988476E+01      0.7965270403E+01      0.8193254796E-01      0.4680018041E-02
          0                 2           5             1    9     1      -0.3909316750E-03       1    9    1      -0.4125428104E+00      0.7819288191E+00      0.7965270403E+01     -0.3909316750E-03
          0                 3           3             1    9     1      -0.1953374436E-04       1    9    1      -0.2430597856E-01      0.4317231228E-01      0.7819288191E+00     -0.1953374436E-04

    ------------------------------------------------
       NWT REQUIRED            3 OUTER ITERATIONS 
       AND A TOTAL OF         14 INNER ITERATIONS.
    ------------------------------------------------
                                                   Max.-Head-Change                        Max.-Flux-Residual
  Residual-Control   Outer-Iter.   Inner-Iter.     Column Row Layer    Max.-Head-Change    Column Row Layer    Max.-Flux-Residual            L2-New               L2-Old           Solver-Max-Delh
          0                 1           6             1    9     1       0.1959125346E-02       1    9    1       0.1839308215E+01      0.3949164642E+01      0.4317231228E-01      0.1959125346E-02
          0                 2           4             1    9     1      -0.1660526111E-03       1    9    1      -0.1818406275E+00      0.3912511372E+00      0.3949164642E+01     -0.1660526111E-03
          0                 3           2             9    9     1       0.9871938926E-05       8    9    1       0.8467076870E-02      0.2316514415E-01      0.3912511372E+00      0.9871938926E-05

    ------------------------------------------------
       NWT REQUIRED            3 OUTER ITERATIONS 
       AND A TOTAL OF         12 INNER ITERATIONS.
    ------------------------------------------------
                                                   Max.-Head-Change                        Max.-Flux-Residual
  Residual-Control   Outer-Iter.   Inner-Iter.     Column Row Layer    Max.-Head-Change    Column Row Layer    Max.-Flux-Residual            L2-New               L2-Old           Solver-Max-Delh
          0                 1           5             1    9     1       0.7542046960E-03       1    9    1       0.7148638174E+00      0.1593299426E+01      0.2316514415E-01      0.7542046960E-03
          0                 2           4             1    9     1      -0.6247633952E-04       1    9    1      -0.7181679661E-01      0.1551027492E+00      0.1593299426E+01     -0.6247633952E-04

    ------------------------------------------------
       NWT REQUIRED            2 OUTER ITERATIONS 
       AND A TOTAL OF          9 INNER ITERATIONS.
    ------------------------------------------------
                                                   Max.-Head-Change                        Max.-Flux-Residual
  Residual-Control   Outer-Iter.   Inner-Iter.     Column Row Layer    Max.-Head-Change    Column Row Layer    Max.-Flux-Residual            L2-New               L2-Old           Solver-Max-Delh
          0                 1           4             1    9     1       0.2779784220E-03       1    9    1       0.2666590200E+00      0.5034827566E+00      0.1551027492E+00      0.2779784220E-03
          0                 2           3             1    9     1      -0.2549608842E-04       1    9    1      -0.3254572919E-01      0.5366179560E-01      0.5034827566E+00     -0.2549608842E-04

    ------------------------------------------------
       NWT REQUIRED            2 OUTER ITERATIONS 
       AND A TOTAL OF          7 INNER ITERATIONS.
    ------------------------------------------------

 OUTPUT CONTROL FOR STRESS PERIOD      8   TIME STEP     1
    SAVE BUDGET
 UBDSV1 SAVING "         STORAGE" ON UNIT7011 AT TIME STEP    1, STRESS PERIOD   8
 UBDSV2 SAVING "   CONSTANT HEAD" ON UNIT7011 AT TIME STEP    1, STRESS PERIOD   8
 UBDSV1 SAVING "FLOW RIGHT FACE " ON UNIT7011 AT TIME STEP    1, STRESS PERIOD   8
 UBDSV1 SAVING "FLOW FRONT FACE " ON UNIT7011 AT TIME STEP    1, STRESS PERIOD   8
 UBDSV1 SAVING "FLOW LOWER FACE " ON UNIT7011 AT TIME STEP    1, STRESS PERIOD   8
 
 
 
 
 
 
 
 
 UBDSV3 SAVING "FARM  NET  RECH." ON UNIT7011 AT TIME STEP    1, STRESS PERIOD   8
 UBDSV4 SAVING " GHOST-NODE HEAD" ON UNIT7011 AT TIME STEP    1, STRESS PERIOD   8
1
  FLUX ACROSS PARENT-CHILD INTERFACE AT TIME STEP  1 IN STRESS PERIOD    8
  ------------------------------------------------------------------------
 G-N FLUX        PARENT        CHILD         DIFFERENCE      % DIFFERENCE
  RATE IN:      5.0098E+03    5.0101E+03    -2.9639E-01       -0.0059
 RATE OUT:      2.3599E+03    2.3593E+03     6.4893E-01        0.0275
 
 SOLVING FOR HEAD 
                                                   Max.-Head-Change                        Max.-Flux-Residual
  Residual-Control   Outer-Iter.   Inner-Iter.     Column Row Layer    Max.-Head-Change    Column Row Layer    Max.-Flux-Residual            L2-New               L2-Old           Solver-Max-Delh
          0                 1           9             8    8     1      -0.1503350414E+01       2    8    1      -0.1965497219E+04      0.2780086158E+04      0.5366179560E-01     -0.1503350414E+01
          0                 2           8             8    8     1       0.1211978079E+00       2    8    1       0.1795804773E+03      0.2503943863E+03      0.2780086158E+04      0.1211978079E+00
          0                 3           6             8    8     1       0.6125554476E-02       2    8    1       0.8865787646E+01      0.1233633636E+02      0.2503943863E+03      0.6125554476E-02
          0                 4           4             8    8     1       0.3149699882E-03       2    8    1       0.4429866089E+00      0.6168690496E+00      0.1233633636E+02      0.3149699882E-03
          0                 5           2             2    8     1       0.1262667147E-04       2    8    1       0.2210271684E-01      0.3486932824E-01      0.6168690496E+00      0.1262667147E-04

    ------------------------------------------------
       NWT REQUIRED            5 OUTER ITERATIONS 
       AND A TOTAL OF         29 INNER ITERATIONS.
    ------------------------------------------------
                                                   Max.-Head-Change                        Max.-Flux-Residual
  Residual-Control   Outer-Iter.   Inner-Iter.     Column Row Layer    Max.-Head-Change    Column Row Layer    Max.-Flux-Residual            L2-New               L2-Old           Solver-Max-Delh
          0                 1           9             8    8     1       0.1418605994E+01       2    8    1       0.1972972952E+04      0.2812959376E+04      0.3486932824E-01      0.1418605994E+01
          0                 2           8             8    8     1      -0.1279179700E+00       8    8    1      -0.2170251366E+03      0.3055250591E+03      0.2812959376E+04     -0.1279179700E+00
          0                 3           6             8    8     1      -0.6522975009E-02       8    8    1      -0.1101164702E+02      0.1545334511E+02      0.3055250591E+03     -0.6522975009E-02
          0                 4           4             8    8     1      -0.3274848247E-03       8    8    1      -0.5508251063E+00      0.7729940228E+00      0.1545334511E+02     -0.3274848247E-03
          0                 5           2             8    8     1      -0.1452913886E-04       8    8    1      -0.2757504355E-01      0.4111725440E-01      0.7729940228E+00     -0.1452913886E-04

    ------------------------------------------------
       NWT REQUIRED            5 OUTER ITERATIONS 
       AND A TOTAL OF         29 INNER ITERATIONS.
    ------------------------------------------------
                                                   Max.-Head-Change                        Max.-Flux-Residual
  Residual-Control   Outer-Iter.   Inner-Iter.     Column Row Layer    Max.-Head-Change    Column Row Layer    Max.-Flux-Residual            L2-New               L2-Old           Solver-Max-Delh
          0                 1           7             4    9     1      -0.1864868843E-01       1    9    1      -0.1316683876E+02      0.3290745304E+02      0.4111725440E-01     -0.1864868843E-01
          0                 2           6             4    9     1       0.1575532672E-02       1    9    1       0.1296783479E+01      0.3238205601E+01      0.3290745304E+02      0.1575532672E-02
          0                 3           4             4    9     1       0.8428167915E-04       1    9    1       0.6533596845E-01      0.1685343561E+00      0.3238205601E+01      0.8428167915E-04

    ------------------------------------------------
       NWT REQUIRED            3 OUTER ITERATIONS 
       AND A TOTAL OF         17 INNER ITERATIONS.
    ------------------------------------------------
                                                   Max.-Head-Change                        Max.-Flux-Residual
  Residual-Control   Outer-Iter.   Inner-Iter.     Column Row Layer    Max.-Head-Change    Column Row Layer    Max.-Flux-Residual            L2-New               L2-Old           Solver-Max-Delh
          0                 1           8             9    9     1       0.4297140911E-01       8    9    1       0.2457006110E+02      0.6027588645E+02      0.1685343561E+00      0.4297140911E-01
          0                 2           6             9    9     1      -0.3616536802E-02       7    9    1      -0.2394249585E+01      0.5899762472E+01      0.6027588645E+02     -0.3616536802E-02
          0                 3           4             9    9     1      -0.1926724079E-03       8    9    1      -0.1309324100E+00      0.3083048280E+00      0.5899762472E+01     -0.1926724079E-03
          0                 4           2             2    9     1      -0.8105290134E-05       9    9    1      -0.7643536446E-02      0.1978152963E-01      0.3083048280E+00     -0.8105290134E-05

    ------------------------------------------------
       NWT REQUIRED            4 OUTER ITERATIONS 
       AND A TOTAL OF         20 INNER ITERATIONS.
    ------------------------------------------------
                                                   Max.-Head-Change                        Max.-Flux-Residual
  Residual-Control   Outer-Iter.   Inner-Iter.     Column Row Layer    Max.-Head-Change    Column Row Layer    Max.-Flux-Residual            L2-New               L2-Old           Solver-Max-Delh
          0                 1           8             9    9     1       0.3513316047E-01       1    9    1       0.2215588538E+02      0.5499297518E+02      0.1978152963E-01      0.3513316047E-01
          0                 2           6             9    9     1      -0.2960937367E-02       1    9    1      -0.2168471065E+01      0.5378694469E+01      0.5499297518E+02     -0.2960937367E-02
          0                 3           4             9    9     1      -0.1498847543E-03       1    9    1      -0.1146993190E+00      0.2807697483E+00      0.5378694469E+01     -0.1498847543E-03
          0                 4           2             8    9     1      -0.1079223286E-04       2    9    1      -0.8767131425E-02      0.2247677669E-01      0.2807697483E+00     -0.1079223286E-04

    ------------------------------------------------
       NWT REQUIRED            4 OUTER ITERATIONS 
       AND A TOTAL OF         20 INNER ITERATIONS.
    ------------------------------------------------
                                                   Max.-Head-Change                        Max.-Flux-Residual
  Residual-Control   Outer-Iter.   Inner-Iter.     Column Row Layer    Max.-Head-Change    Column Row Layer    Max.-Flux-Residual            L2-New               L2-Old           Solver-Max-Delh
          0                 1           7             1    9     1       0.1713344350E-01       1    9    1       0.1474690845E+02      0.3108811941E+02      0.2247677669E-01      0.1713344350E-01
          0                 2           6             1    9     1      -0.1448570142E-02       1    9    1      -0.1443758197E+01      0.3046842236E+01      0.3108811941E+02     -0.1448570142E-02
          0                 3           4             1    9     1      -0.7597349706E-04       1    9    1      -0.7692514639E-01      0.1574170405E+00      0.3046842236E+01     -0.7597349706E-04

    ------------------------------------------------
       NWT REQUIRED            3 OUTER ITERATIONS 
       AND A TOTAL OF         17 INNER ITERATIONS.
    ------------------------------------------------
                                                   Max.-Head-Change                        Max.-Flux-Residual
  Residual-Control   Outer-Iter.   Inner-Iter.     Column Row Layer    Max.-Head-Change    Column Row Layer    Max.-Flux-Residual            L2-New               L2-Old           Solver-Max-Delh
          0                 1           7             1    9     1       0.9068546408E-02       1    9    1       0.8008175453E+01      0.1457344106E+02      0.1574170405E+00      0.9068546408E-02
          0                 2           5             1    9     1      -0.7653556681E-03       1    9    1      -0.7811154313E+00      0.1433715200E+01      0.1457344106E+02     -0.7653556681E-03
          0                 3           3             1    9     1      -0.3911037188E-04       1    9    1      -0.4055347497E-01      0.7708798368E-01      0.1433715200E+01     -0.3911037188E-04

    ------------------------------------------------
       NWT REQUIRED            3 OUTER ITERATIONS 
       AND A TOTAL OF         15 INNER ITERATIONS.
    ------------------------------------------------
                                                   Max.-Head-Change                        Max.-Flux-Residual
  Residual-Control   Outer-Iter.   Inner-Iter.     Column Row Layer    Max.-Head-Change    Column Row Layer    Max.-Flux-Residual            L2-New               L2-Old           Solver-Max-Delh
          0                 1           6             1    9     1       0.4213012619E-02       1    9    1       0.3831021870E+01      0.7055577519E+01      0.7708798368E-01      0.4213012619E-02
          0                 2           5             1    9     1      -0.3551938618E-03       1    9    1      -0.3787432753E+00      0.6960473783E+00      0.7055577519E+01     -0.3551938618E-03
          0                 3           3             1    9     1      -0.2336674284E-04       1    9    1      -0.2446114068E-01      0.4358682734E-01      0.6960473783E+00     -0.2336674284E-04

    ------------------------------------------------
       NWT REQUIRED            3 OUTER ITERATIONS 
       AND A TOTAL OF         14 INNER ITERATIONS.
    ------------------------------------------------
                                                   Max.-Head-Change                        Max.-Flux-Residual
  Residual-Control   Outer-Iter.   Inner-Iter.     Column Row Layer    Max.-Head-Change    Column Row Layer    Max.-Flux-Residual            L2-New               L2-Old           Solver-Max-Delh
          0                 1           6             1    9     1       0.1772146708E-02       1    9    1       0.1659489264E+01      0.3531021318E+01      0.4358682734E-01      0.1772146708E-02
          0                 2           4             1    9     1      -0.1492497646E-03       1    9    1      -0.1593032579E+00      0.3472889369E+00      0.3531021318E+01     -0.1492497646E-03
          0                 3           3             3    1     1      -0.1114295568E-04       9    9    1       0.8375218502E-02      0.2739444595E-01      0.3472889369E+00     -0.1114295568E-04

    ------------------------------------------------
       NWT REQUIRED            3 OUTER ITERATIONS 
       AND A TOTAL OF         13 INNER ITERATIONS.
    ------------------------------------------------
                                                   Max.-Head-Change                        Max.-Flux-Residual
  Residual-Control   Outer-Iter.   Inner-Iter.     Column Row Layer    Max.-Head-Change    Column Row Layer    Max.-Flux-Residual            L2-New               L2-Old           Solver-Max-Delh
          0                 1           5             1    9     1       0.6964028257E-03       1    9    1       0.6609044217E+00      0.1506076335E+01      0.2739444595E-01      0.6964028257E-03
          0                 2           4             1    9     1      -0.5981120571E-04       1    9    1      -0.6811426813E-01      0.1495432274E+00      0.1506076335E+01     -0.5981120571E-04

    ------------------------------------------------
       NWT REQUIRED            2 OUTER ITERATIONS 
       AND A TOTAL OF          9 INNER ITERATIONS.
    ------------------------------------------------
                                                   Max.-Head-Change                        Max.-Flux-Residual
  Residual-Control   Outer-Iter.   Inner-Iter.     Column Row Layer    Max.-Head-Change    Column Row Layer    Max.-Flux-Residual            L2-New               L2-Old           Solver-Max-Delh
          0                 1           4             1    9     1       0.2452411563E-03       1    9    1       0.2337301170E+00      0.4527932836E+00      0.1495432274E+00      0.2452411563E-03
          0                 2           3             1    9     1      -0.2219662013E-04       1    9    1      -0.2571353741E-01      0.4693727436E-01      0.4527932836E+00     -0.2219662013E-04

    ------------------------------------------------
       NWT REQUIRED            2 OUTER ITERATIONS 
       AND A TOTAL OF          7 INNER ITERATIONS.
    ------------------------------------------------

 OUTPUT CONTROL FOR STRESS PERIOD      8   TIME STEP     2
    SAVE BUDGET
 UBDSV1 SAVING "         STORAGE" ON UNIT7011 AT TIME STEP    2, STRESS PERIOD   8
 UBDSV2 SAVING "   CONSTANT HEAD" ON UNIT7011 AT TIME STEP    2, STRESS PERIOD   8
 UBDSV1 SAVING "FLOW RIGHT FACE " ON UNIT7011 AT TIME STEP    2, STRESS PERIOD   8
 UBDSV1 SAVING "FLOW FRONT FACE " ON UNIT7011 AT TIME STEP    2, STRESS PERIOD   8
 UBDSV1 SAVING "FLOW LOWER FACE " ON UNIT7011 AT TIME STEP    2, STRESS PERIOD   8
 
 
 
 
 
 
 
 
 UBDSV3 SAVING "FARM  NET  RECH." ON UNIT7011 AT TIME STEP    2, STRESS PERIOD   8
 UBDSV4 SAVING " GHOST-NODE HEAD" ON UNIT7011 AT TIME STEP    2, STRESS PERIOD   8
1
  VOLUMETRIC BUDGET FOR ENTIRE MODEL AT END OF TIME STEP    2 IN STRESS PERIOD      8
  ------------------------------------------------------------------------------

     CUMULATIVE VOLUMES      L**3       RATES FOR THIS TIME STEP      L**3/T
     ------------------                 ------------------------

           IN:                                      IN:
           ---                                      ---
             STORAGE =       88120.5000               STORAGE =         191.0290
       CONSTANT HEAD =           0.0000         CONSTANT HEAD =           0.0000
          FARM WELLS =           0.0000            FARM WELLS =           0.0000
    FARM  NET  RECH. =      674000.6875      FARM  NET  RECH. =        3308.7004
     GHOST-NODE HEAD =     4178316.0000       GHOST-NODE HEAD =        4905.5342

            TOTAL IN =     4940437.0000              TOTAL IN =        8405.2637

          OUT:                                     OUT:
          ----                                     ----
             STORAGE =     3595294.0000               STORAGE =           0.0000
       CONSTANT HEAD =           0.0000         CONSTANT HEAD =           0.0000
          FARM WELLS =      917905.0625            FARM WELLS =        6054.0562
    FARM  NET  RECH. =           0.0000      FARM  NET  RECH. =           0.0000
     GHOST-NODE HEAD =      427237.2812       GHOST-NODE HEAD =        2351.2346

           TOTAL OUT =     4940436.5000             TOTAL OUT =        8405.2910

            IN - OUT =           0.5000              IN - OUT =      -2.7344E-02

 PERCENT DISCREPANCY =           0.00     PERCENT DISCREPANCY =          -0.00






          TIME SUMMARY AT END OF TIME STEP     2 IN STRESS PERIOD      8
                    SECONDS     MINUTES      HOURS       DAYS        YEARS
                    -----------------------------------------------------------
   TIME STEP LENGTH 1.31414E+06  21902.      365.04      15.210     4.16427E-02
 STRESS PERIOD TIME 2.62829E+06  43805.      730.08      30.420     8.32854E-02
         TOTAL TIME 2.10263E+07 3.50438E+05  5840.6      243.36     0.66628    
1
1
  FLUX ACROSS PARENT-CHILD INTERFACE AT TIME STEP  2 IN STRESS PERIOD    8
  ------------------------------------------------------------------------
 G-N FLUX        PARENT        CHILD         DIFFERENCE      % DIFFERENCE
  RATE IN:      4.9053E+03    4.9055E+03    -2.3291E-01       -0.0047
 RATE OUT:      2.3518E+03    2.3512E+03     5.7983E-01        0.0247
1
                            STRESS PERIOD NO.      9, LENGTH =   30.42000    
                            -----------------------------------------------

                              NUMBER OF TIME STEPS =     2

                               MULTIPLIER FOR DELT =     1.000

                            INITIAL TIME STEP SIZE =   15.21000    

 Parameter:  WELLS1
 WELL NO. LAYER    ROW    COL  F-WELL ID    FARM ID         QMAX         QMAXRESET       LGRGRID         
 --------------------------------------------------------------------------------------------------------
       1      1      8      2          2          1      5.0000E+03              0              0
       2      1      8      8          3          1      5.0000E+03              0              0

 NUMBER OF ACTIVE FARM WELLS:        2

 FARM-ID  NUMBER OF WELLS PER FARM  TOTAL MAX.CAPACITY PER FARM
       1                         2                   10000.0000
       2                         0                       0.0000
       3                         0                       0.0000
       4                         0                       0.0000
       5                         0                       0.0000
       6                         0                       0.0000
       7                         0                       0.0000
       8                         0                       0.0000

Transpiratory and Evaporative Fractions of Crop Consumptive Use
    % Transpiration % Evap. for Precip. % Evap. for Irrig.
    2          0.950          0.050          0.050
    3          0.661          0.339          0.339

FRACTIONS OF IN-EFFICIENT LOSSES TO SW-RUNOFF FROM 
     PRECIPITATION:  IRRIGATION:
    2          0.400          0.300
    3          0.600          0.500
 
 SOLVING FOR HEAD 
                                                   Max.-Head-Change                        Max.-Flux-Residual
  Residual-Control   Outer-Iter.   Inner-Iter.     Column Row Layer    Max.-Head-Change    Column Row Layer    Max.-Flux-Residual            L2-New               L2-Old           Solver-Max-Delh
          0                 1           9             2    8     1      -0.1023755882E+01       2    8    1      -0.1432828607E+04      0.2017454407E+04      0.4693727436E-01     -0.1023755882E+01
          0                 2           8             2    8     1       0.8434333133E-01       2    8    1       0.1328474888E+03      0.1871640490E+03      0.2017454407E+04      0.8434333133E-01
          0                 3           6             2    8     1       0.4267004851E-02       2    8    1       0.6571663909E+01      0.9257109787E+01      0.1871640490E+03      0.4267004851E-02
          0                 4           4             2    8     1       0.2186088454E-03       2    8    1       0.3283841989E+00      0.4634670971E+00      0.9257109787E+01      0.2186088454E-03
          0                 5           2             2    8     1       0.1116207202E-04       2    8    1       0.1637811871E-01      0.2700121998E-01      0.4634670971E+00      0.1116207202E-04

    ------------------------------------------------
       NWT REQUIRED            5 OUTER ITERATIONS 
       AND A TOTAL OF         29 INNER ITERATIONS.
    ------------------------------------------------
                                                   Max.-Head-Change                        Max.-Flux-Residual
  Residual-Control   Outer-Iter.   Inner-Iter.     Column Row Layer    Max.-Head-Change    Column Row Layer    Max.-Flux-Residual            L2-New               L2-Old           Solver-Max-Delh
          0                 1           9             8    8     1       0.1228772282E+01       2    8    1       0.1669994766E+04      0.2378134701E+04      0.2700121998E-01      0.1228772282E+01
          0                 2           8             8    8     1      -0.1154819891E+00       8    8    1      -0.1895784467E+03      0.2664758762E+03      0.2378134701E+04     -0.1154819891E+00
          0                 3           6             8    8     1      -0.5886541404E-02       8    8    1      -0.9610045095E+01      0.1346644254E+02      0.2664758762E+03     -0.5886541404E-02
          0                 4           4             8    8     1      -0.2959584198E-03       8    8    1      -0.4807223401E+00      0.6730792790E+00      0.1346644254E+02     -0.2959584198E-03
          0                 5           2             8    8     1      -0.1368905690E-04       8    8    1      -0.2399673546E-01      0.3559850381E-01      0.6730792790E+00     -0.1368905690E-04

    ------------------------------------------------
       NWT REQUIRED            5 OUTER ITERATIONS 
       AND A TOTAL OF         29 INNER ITERATIONS.
    ------------------------------------------------
                                                   Max.-Head-Change                        Max.-Flux-Residual
  Residual-Control   Outer-Iter.   Inner-Iter.     Column Row Layer    Max.-Head-Change    Column Row Layer    Max.-Flux-Residual            L2-New               L2-Old           Solver-Max-Delh
          0                 1           7             9    9     1       0.1794081608E-01       1    1    1      -0.1314270523E+02      0.3900073011E+02      0.3559850381E-01      0.1794081608E-01
          0                 2           5             9    9     1      -0.1519903984E-02       1    1    1       0.1327362924E+01      0.3871202617E+01      0.3900073011E+02     -0.1519903984E-02
          0                 3           4             9    9     1      -0.8080425537E-04       1    9    1       0.7402660151E-01      0.1987198011E+00      0.3871202617E+01     -0.8080425537E-04

    ------------------------------------------------
       NWT REQUIRED            3 OUTER ITERATIONS 
       AND A TOTAL OF         16 INNER ITERATIONS.
    ------------------------------------------------
                                                   Max.-Head-Change                        Max.-Flux-Residual
  Residual-Control   Outer-Iter.   Inner-Iter.     Column Row Layer    Max.-Head-Change    Column Row Layer    Max.-Flux-Residual            L2-New               L2-Old           Solver-Max-Delh
          0                 1           8             9    9     1       0.4505015768E-01       8    9    1       0.2637940783E+02      0.5896713720E+02      0.1987198011E+00      0.4505015768E-01
          0                 2           6             9    9     1      -0.3809389031E-02       7    9    1      -0.2586301089E+01      0.5777384044E+01      0.5896713720E+02     -0.3809389031E-02
          0                 3           4             9    9     1      -0.1945626045E-03       7    9    1      -0.1359376219E+00      0.3023025669E+00      0.5777384044E+01     -0.1945626045E-03
          0                 4           2             9    9     1      -0.1104707774E-04       7    9    1      -0.8006689837E-02      0.1944927041E-01      0.3023025669E+00     -0.1104707774E-04

    ------------------------------------------------
       NWT REQUIRED            4 OUTER ITERATIONS 
       AND A TOTAL OF         20 INNER ITERATIONS.
    ------------------------------------------------
                                                   Max.-Head-Change                        Max.-Flux-Residual
  Residual-Control   Outer-Iter.   Inner-Iter.     Column Row Layer    Max.-Head-Change    Column Row Layer    Max.-Flux-Residual            L2-New               L2-Old           Solver-Max-Delh
          0                 1           8             9    9     1       0.2986042199E-01       1    9    1       0.1879517338E+02      0.4618388298E+02      0.1944927041E-01      0.2986042199E-01
          0                 2           6             9    9     1      -0.2517420800E-02       1    9    1      -0.1837734373E+01      0.4521944400E+01      0.4618388298E+02     -0.2517420800E-02
          0                 3           4             9    9     1      -0.1305919304E-03       1    9    1      -0.1016971208E+00      0.2331362852E+00      0.4521944400E+01     -0.1305919304E-03
          0                 4           2             8    9     1      -0.8056267092E-05       8    9    1      -0.7701228722E-02      0.1817971064E-01      0.2331362852E+00     -0.8056267092E-05

    ------------------------------------------------
       NWT REQUIRED            4 OUTER ITERATIONS 
       AND A TOTAL OF         20 INNER ITERATIONS.
    ------------------------------------------------
                                                   Max.-Head-Change                        Max.-Flux-Residual
  Residual-Control   Outer-Iter.   Inner-Iter.     Column Row Layer    Max.-Head-Change    Column Row Layer    Max.-Flux-Residual            L2-New               L2-Old           Solver-Max-Delh
          0                 1           7             1    9     1       0.1439137208E-01       1    9    1       0.1251909640E+02      0.2461821077E+02      0.1817971064E-01      0.1439137208E-01
          0                 2           5             1    9     1      -0.1215201035E-02       1    9    1      -0.1226489808E+01      0.2405985894E+01      0.2461821077E+02     -0.1215201035E-02
          0                 3           4             1    9     1      -0.6658475975E-04       1    9    1      -0.6787457841E-01      0.1328652139E+00      0.2405985894E+01     -0.6658475975E-04

    ------------------------------------------------
       NWT REQUIRED            3 OUTER ITERATIONS 
       AND A TOTAL OF         16 INNER ITERATIONS.
    ------------------------------------------------
                                                   Max.-Head-Change                        Max.-Flux-Residual
  Residual-Control   Outer-Iter.   Inner-Iter.     Column Row Layer    Max.-Head-Change    Column Row Layer    Max.-Flux-Residual            L2-New               L2-Old           Solver-Max-Delh
          0                 1           7             1    9     1       0.7646188007E-02       1    9    1       0.6839888474E+01      0.1183641444E+02      0.1328652139E+00      0.7646188007E-02
          0                 2           5             1    9     1      -0.6483868744E-03       1    9    1      -0.6708785632E+00      0.1169100405E+01      0.1183641444E+02     -0.6483868744E-03
          0                 3           3             1    9     1      -0.3555962427E-04       1    9    1      -0.3511712601E-01      0.6442333176E-01      0.1169100405E+01     -0.3555962427E-04

    ------------------------------------------------
       NWT REQUIRED            3 OUTER ITERATIONS 
       AND A TOTAL OF         15 INNER ITERATIONS.
    ------------------------------------------------
                                                   Max.-Head-Change                        Max.-Flux-Residual
  Residual-Control   Outer-Iter.   Inner-Iter.     Column Row Layer    Max.-Head-Change    Column Row Layer    Max.-Flux-Residual            L2-New               L2-Old           Solver-Max-Delh
          0                 1           6             1    9     1       0.3600316010E-02       1    9    1       0.3319427762E+01      0.6220455107E+01      0.6442333176E-01      0.3600316010E-02
          0                 2           5             1    9     1      -0.3058171349E-03       1    9    1      -0.3238507983E+00      0.6165675727E+00      0.6220455107E+01     -0.3058171349E-03
          0                 3           3             1    9     1      -0.1849063682E-04       1    9    1      -0.2352721669E-01      0.3617292989E-01      0.6165675727E+00     -0.1849063682E-04

    ------------------------------------------------
       NWT REQUIRED            3 OUTER ITERATIONS 
       AND A TOTAL OF         14 INNER ITERATIONS.
    ------------------------------------------------
                                                   Max.-Head-Change                        Max.-Flux-Residual
  Residual-Control   Outer-Iter.   Inner-Iter.     Column Row Layer    Max.-Head-Change    Column Row Layer    Max.-Flux-Residual            L2-New               L2-Old           Solver-Max-Delh
          0                 1           5             1    9     1       0.1563244340E-02       1    9    1       0.1464390220E+01      0.3180498465E+01      0.3617292989E-01      0.1563244340E-02
          0                 2           4             1    9     1      -0.1365125312E-03       1    9    1      -0.1481766518E+00      0.3227855423E+00      0.3180498465E+01     -0.1365125312E-03
          0                 3           2             1    1     1      -0.8598281375E-05       1    1    1      -0.1402898401E-01      0.2246313815E-01      0.3227855423E+00     -0.8598281375E-05

    ------------------------------------------------
       NWT REQUIRED            3 OUTER ITERATIONS 
       AND A TOTAL OF         11 INNER ITERATIONS.
    ------------------------------------------------
                                                   Max.-Head-Change                        Max.-Flux-Residual
  Residual-Control   Outer-Iter.   Inner-Iter.     Column Row Layer    Max.-Head-Change    Column Row Layer    Max.-Flux-Residual            L2-New               L2-Old           Solver-Max-Delh
          0                 1           5             1    9     1       0.6472234873E-03       1    9    1       0.6118614018E+00      0.1319127291E+01      0.2246313815E-01      0.6472234873E-03
          0                 2           4             1    9     1      -0.5507098657E-04       1    9    1      -0.6219781522E-01      0.1329198803E+00      0.1319127291E+01     -0.5507098657E-04

    ------------------------------------------------
       NWT REQUIRED            2 OUTER ITERATIONS 
       AND A TOTAL OF          9 INNER ITERATIONS.
    ------------------------------------------------
                                                   Max.-Head-Change                        Max.-Flux-Residual
  Residual-Control   Outer-Iter.   Inner-Iter.     Column Row Layer    Max.-Head-Change    Column Row Layer    Max.-Flux-Residual            L2-New               L2-Old           Solver-Max-Delh
          0                 1           4             1    9     1       0.2399530565E-03       1    9    1       0.2219091717E+00      0.4229727582E+00      0.1329198803E+00      0.2399530565E-03
          0                 2           3             1    9     1      -0.1970623857E-04       1    9    1      -0.2278933069E-01      0.4260807955E-01      0.4229727582E+00     -0.1970623857E-04

    ------------------------------------------------
       NWT REQUIRED            2 OUTER ITERATIONS 
       AND A TOTAL OF          7 INNER ITERATIONS.
    ------------------------------------------------

 OUTPUT CONTROL FOR STRESS PERIOD      9   TIME STEP     1
    SAVE BUDGET
 UBDSV1 SAVING "         STORAGE" ON UNIT7011 AT TIME STEP    1, STRESS PERIOD   9
 UBDSV2 SAVING "   CONSTANT HEAD" ON UNIT7011 AT TIME STEP    1, STRESS PERIOD   9
 UBDSV1 SAVING "FLOW RIGHT FACE " ON UNIT7011 AT TIME STEP    1, STRESS PERIOD   9
 UBDSV1 SAVING "FLOW FRONT FACE " ON UNIT7011 AT TIME STEP    1, STRESS PERIOD   9
 UBDSV1 SAVING "FLOW LOWER FACE " ON UNIT7011 AT TIME STEP    1, STRESS PERIOD   9
 
 
 
 
 
 
 
 
 UBDSV3 SAVING "FARM  NET  RECH." ON UNIT7011 AT TIME STEP    1, STRESS PERIOD   9
 UBDSV4 SAVING " GHOST-NODE HEAD" ON UNIT7011 AT TIME STEP    1, STRESS PERIOD   9
1
  FLUX ACROSS PARENT-CHILD INTERFACE AT TIME STEP  1 IN STRESS PERIOD    9
  ------------------------------------------------------------------------
 G-N FLUX        PARENT        CHILD         DIFFERENCE      % DIFFERENCE
  RATE IN:      4.7918E+03    4.7919E+03    -1.4502E-01       -0.0030
 RATE OUT:      2.2938E+03    2.2934E+03     4.5508E-01        0.0198
 
 SOLVING FOR HEAD 
                                                   Max.-Head-Change                        Max.-Flux-Residual
  Residual-Control   Outer-Iter.   Inner-Iter.     Column Row Layer    Max.-Head-Change    Column Row Layer    Max.-Flux-Residual            L2-New               L2-Old           Solver-Max-Delh
          0                 1           9             8    8     1      -0.1272800994E+01       2    8    1      -0.1737447036E+04      0.2457787313E+04      0.4260807955E-01     -0.1272800994E+01
          0                 2           8             8    8     1       0.1037684992E+00       2    8    1       0.1606317454E+03      0.2252544206E+03      0.2457787313E+04      0.1037684992E+00
          0                 3           6             8    8     1       0.5234713580E-02       2    8    1       0.7942932824E+01      0.1111761520E+02      0.2252544206E+03      0.5234713580E-02
          0                 4           4             8    8     1       0.2688717368E-03       2    8    1       0.3968899529E+00      0.5553860129E+00      0.1111761520E+02      0.2688717368E-03
          0                 5           2             8    8     1       0.1332098848E-04       2    8    1       0.1982320868E-01      0.3138610704E-01      0.5553860129E+00      0.1332098848E-04

    ------------------------------------------------
       NWT REQUIRED            5 OUTER ITERATIONS 
       AND A TOTAL OF         29 INNER ITERATIONS.
    ------------------------------------------------
                                                   Max.-Head-Change                        Max.-Flux-Residual
  Residual-Control   Outer-Iter.   Inner-Iter.     Column Row Layer    Max.-Head-Change    Column Row Layer    Max.-Flux-Residual            L2-New               L2-Old           Solver-Max-Delh
          0                 1           9             8    8     1       0.1257741216E+01       2    8    1       0.1738051341E+04      0.2476164550E+04      0.3138610704E-01      0.1257741216E+01
          0                 2           8             8    8     1      -0.1128110343E+00       8    8    1      -0.1893218703E+03      0.2666004210E+03      0.2476164550E+04     -0.1128110343E+00
          0                 3           6             8    8     1      -0.5746595996E-02       8    8    1      -0.9590960527E+01      0.1346622634E+02      0.2666004210E+03     -0.5746595996E-02
          0                 4           4             8    8     1      -0.2918048793E-03       8    8    1      -0.4798053841E+00      0.6730272886E+00      0.1346622634E+02     -0.2918048793E-03
          0                 5           2             8    8     1      -0.1089337195E-04       8    8    1      -0.2398662665E-01      0.3637230330E-01      0.6730272886E+00     -0.1089337195E-04

    ------------------------------------------------
       NWT REQUIRED            5 OUTER ITERATIONS 
       AND A TOTAL OF         29 INNER ITERATIONS.
    ------------------------------------------------
                                                   Max.-Head-Change                        Max.-Flux-Residual
  Residual-Control   Outer-Iter.   Inner-Iter.     Column Row Layer    Max.-Head-Change    Column Row Layer    Max.-Flux-Residual            L2-New               L2-Old           Solver-Max-Delh
          0                 1           7             4    9     1      -0.1675751144E-01       1    9    1      -0.1282106575E+02      0.2908698627E+02      0.3637230330E-01     -0.1675751144E-01
          0                 2           5             4    9     1       0.1421636596E-02       1    9    1       0.1258671120E+01      0.2864611826E+01      0.2908698627E+02      0.1421636596E-02
          0                 3           4             3    9     1       0.7513542800E-04       1    9    1       0.6635930401E-01      0.1475514951E+00      0.2864611826E+01      0.7513542800E-04

    ------------------------------------------------
       NWT REQUIRED            3 OUTER ITERATIONS 
       AND A TOTAL OF         16 INNER ITERATIONS.
    ------------------------------------------------
                                                   Max.-Head-Change                        Max.-Flux-Residual
  Residual-Control   Outer-Iter.   Inner-Iter.     Column Row Layer    Max.-Head-Change    Column Row Layer    Max.-Flux-Residual            L2-New               L2-Old           Solver-Max-Delh
          0                 1           8             9    9     1       0.3587560989E-01       8    9    1       0.2059009399E+02      0.5007509327E+02      0.1475514951E+00      0.3587560989E-01
          0                 2           6             9    9     1      -0.3024902249E-02       7    9    1      -0.2011616071E+01      0.4907978247E+01      0.5007509327E+02     -0.3024902249E-02
          0                 3           4             9    9     1      -0.1626020353E-03       9    9    1      -0.1118741909E+00      0.2544405206E+00      0.4907978247E+01     -0.1626020353E-03
          0                 4           2             1    9     1      -0.7563219635E-05       1    9    1      -0.1392067980E-01      0.2186953518E-01      0.2544405206E+00     -0.7563219635E-05

    ------------------------------------------------
       NWT REQUIRED            4 OUTER ITERATIONS 
       AND A TOTAL OF         20 INNER ITERATIONS.
    ------------------------------------------------
                                                   Max.-Head-Change                        Max.-Flux-Residual
  Residual-Control   Outer-Iter.   Inner-Iter.     Column Row Layer    Max.-Head-Change    Column Row Layer    Max.-Flux-Residual            L2-New               L2-Old           Solver-Max-Delh
          0                 1           8             9    9     1       0.2883947531E-01       1    9    1       0.1883650863E+02      0.4587143916E+02      0.2186953518E-01      0.2883947531E-01
          0                 2           6             9    9     1      -0.2431034476E-02       1    9    1      -0.1845755517E+01      0.4489948493E+01      0.4587143916E+02     -0.2431034476E-02
          0                 3           4             8    9     1      -0.1290011534E-03       1    9    1      -0.9992001433E-01      0.2390750527E+00      0.4489948493E+01     -0.1290011534E-03
          0                 4           2             9    9     1      -0.6160247847E-05       1    3    1      -0.7662329357E-02      0.1660502808E-01      0.2390750527E+00     -0.6160247847E-05

    ------------------------------------------------
       NWT REQUIRED            4 OUTER ITERATIONS 
       AND A TOTAL OF         20 INNER ITERATIONS.
    ------------------------------------------------
                                                   Max.-Head-Change                        Max.-Flux-Residual
  Residual-Control   Outer-Iter.   Inner-Iter.     Column Row Layer    Max.-Head-Change    Column Row Layer    Max.-Flux-Residual            L2-New               L2-Old           Solver-Max-Delh
          0                 1           7             1    9     1       0.1468086517E-01       1    9    1       0.1263879443E+02      0.2605578300E+02      0.1660502808E-01      0.1468086517E-01
          0                 2           5             1    9     1      -0.1242166484E-02       1    9    1      -0.1239266172E+01      0.2556024820E+01      0.2605578300E+02     -0.1242166484E-02
          0                 3           4             1    9     1      -0.6447839968E-04       1    9    1      -0.5995024892E-01      0.1344648693E+00      0.2556024820E+01     -0.6447839968E-04

    ------------------------------------------------
       NWT REQUIRED            3 OUTER ITERATIONS 
       AND A TOTAL OF         16 INNER ITERATIONS.
    ------------------------------------------------
                                                   Max.-Head-Change                        Max.-Flux-Residual
  Residual-Control   Outer-Iter.   Inner-Iter.     Column Row Layer    Max.-Head-Change    Column Row Layer    Max.-Flux-Residual            L2-New               L2-Old           Solver-Max-Delh
          0                 1           7             1    9     1       0.7809647367E-02       1    9    1       0.6908712120E+01      0.1240682671E+02      0.1344648693E+00      0.7809647367E-02
          0                 2           5             1    9     1      -0.6629400957E-03       1    9    1      -0.6806444776E+00      0.1222418657E+01      0.1240682671E+02     -0.6629400957E-03
          0                 3           3             1    9     1      -0.3700269120E-04       1    9    1      -0.4010728037E-01      0.6802749908E-01      0.1222418657E+01     -0.3700269120E-04

    ------------------------------------------------
       NWT REQUIRED            3 OUTER ITERATIONS 
       AND A TOTAL OF         15 INNER ITERATIONS.
    ------------------------------------------------
                                                   Max.-Head-Change                        Max.-Flux-Residual
  Residual-Control   Outer-Iter.   Inner-Iter.     Column Row Layer    Max.-Head-Change    Column Row Layer    Max.-Flux-Residual            L2-New               L2-Old           Solver-Max-Delh
          0                 1           6             1    9     1       0.3633468105E-02       1    9    1       0.3314350377E+01      0.6126413357E+01      0.6802749908E-01      0.3633468105E-02
          0                 2           5             1    9     1      -0.3090077884E-03       1    9    1      -0.3261598633E+00      0.6069320774E+00      0.6126413357E+01     -0.3090077884E-03
          0                 3           3             1    8     1      -0.1695132888E-04       1    9    1      -0.1672766701E-01      0.3739573419E-01      0.6069320774E+00     -0.1695132888E-04

    ------------------------------------------------
       NWT REQUIRED            3 OUTER ITERATIONS 
       AND A TOTAL OF         14 INNER ITERATIONS.
    ------------------------------------------------
                                                   Max.-Head-Change                        Max.-Flux-Residual
  Residual-Control   Outer-Iter.   Inner-Iter.     Column Row Layer    Max.-Head-Change    Column Row Layer    Max.-Flux-Residual            L2-New               L2-Old           Solver-Max-Delh
          0                 1           5             1    9     1       0.1544347518E-02       1    9    1       0.1448600019E+01      0.3108166179E+01      0.3739573419E-01      0.1544347518E-02
          0                 2           4             1    9     1      -0.1321553791E-03       1    9    1      -0.1446462747E+00      0.3077900379E+00      0.3108166179E+01     -0.1321553791E-03
          0                 3           2             9    9     1       0.9098381679E-05       9    9    1       0.8407806206E-02      0.2379930186E-01      0.3077900379E+00      0.9098381679E-05

    ------------------------------------------------
       NWT REQUIRED            3 OUTER ITERATIONS 
       AND A TOTAL OF         11 INNER ITERATIONS.
    ------------------------------------------------
                                                   Max.-Head-Change                        Max.-Flux-Residual
  Residual-Control   Outer-Iter.   Inner-Iter.     Column Row Layer    Max.-Head-Change    Column Row Layer    Max.-Flux-Residual            L2-New               L2-Old           Solver-Max-Delh
          0                 1           5             9    9     1      -0.6288890838E-03       1    9    1       0.5690328126E+00      0.1311544559E+01      0.2379930186E-01     -0.6288890838E-03
          0                 2           4             9    9     1       0.5453680011E-04       1    9    1      -0.5179784406E-01      0.1337955249E+00      0.1311544559E+01      0.5453680011E-04

    ------------------------------------------------
       NWT REQUIRED            2 OUTER ITERATIONS 
       AND A TOTAL OF          9 INNER ITERATIONS.
    ------------------------------------------------
                                                   Max.-Head-Change                        Max.-Flux-Residual
  Residual-Control   Outer-Iter.   Inner-Iter.     Column Row Layer    Max.-Head-Change    Column Row Layer    Max.-Flux-Residual            L2-New               L2-Old           Solver-Max-Delh
          0                 1           4             1    9     1       0.2280217962E-03       1    9    1       0.2179185627E+00      0.4217019924E+00      0.1337955249E+00      0.2280217962E-03
          0                 2           3             2    1     1      -0.2198801611E-04       1    9    1      -0.2317154326E-01      0.5105450268E-01      0.4217019924E+00     -0.2198801611E-04

    ------------------------------------------------
       NWT REQUIRED            2 OUTER ITERATIONS 
       AND A TOTAL OF          7 INNER ITERATIONS.
    ------------------------------------------------

 OUTPUT CONTROL FOR STRESS PERIOD      9   TIME STEP     2
    PRINT BUDGET
    SAVE HEAD FOR ALL LAYERS
    SAVE BUDGET
 UBDSV1 SAVING "         STORAGE" ON UNIT7011 AT TIME STEP    2, STRESS PERIOD   9
 UBDSV2 SAVING "   CONSTANT HEAD" ON UNIT7011 AT TIME STEP    2, STRESS PERIOD   9
 UBDSV1 SAVING "FLOW RIGHT FACE " ON UNIT7011 AT TIME STEP    2, STRESS PERIOD   9
 UBDSV1 SAVING "FLOW FRONT FACE " ON UNIT7011 AT TIME STEP    2, STRESS PERIOD   9
 UBDSV1 SAVING "FLOW LOWER FACE " ON UNIT7011 AT TIME STEP    2, STRESS PERIOD   9
 
 
 
 
 
 
 
 
 UBDSV3 SAVING "FARM  NET  RECH." ON UNIT7011 AT TIME STEP    2, STRESS PERIOD   9
 UBDSV4 SAVING " GHOST-NODE HEAD" ON UNIT7011 AT TIME STEP    2, STRESS PERIOD   9

 HEAD WILL BE SAVED ON UNIT 2211 AT END OF TIME STEP     2, STRESS PERIOD      9
1
  VOLUMETRIC BUDGET FOR ENTIRE MODEL AT END OF TIME STEP    2 IN STRESS PERIOD      9
  ------------------------------------------------------------------------------

     CUMULATIVE VOLUMES      L**3       RATES FOR THIS TIME STEP      L**3/T
     ------------------                 ------------------------

           IN:                                      IN:
           ---                                      ---
             STORAGE =       92384.7031               STORAGE =         111.7456
       CONSTANT HEAD =           0.0000         CONSTANT HEAD =           0.0000
          FARM WELLS =           0.0000            FARM WELLS =           0.0000
    FARM  NET  RECH. =      764644.8125      FARM  NET  RECH. =        2979.7556
     GHOST-NODE HEAD =     4323557.5000       GHOST-NODE HEAD =        4757.1343

            TOTAL IN =     5180587.0000              TOTAL IN =        7848.6357

          OUT:                                     OUT:
          ----                                     ----
             STORAGE =     3596974.2500               STORAGE =           8.6595
       CONSTANT HEAD =           0.0000         CONSTANT HEAD =           0.0000
          FARM WELLS =     1086588.5000            FARM WELLS =        5545.1504
    FARM  NET  RECH. =           0.0000      FARM  NET  RECH. =           0.0000
     GHOST-NODE HEAD =      497023.6250       GHOST-NODE HEAD =        2294.8264

           TOTAL OUT =     5180586.5000             TOTAL OUT =        7848.6367

            IN - OUT =           0.5000              IN - OUT =      -9.7656E-04

 PERCENT DISCREPANCY =           0.00     PERCENT DISCREPANCY =          -0.00






          TIME SUMMARY AT END OF TIME STEP     2 IN STRESS PERIOD      9
                    SECONDS     MINUTES      HOURS       DAYS        YEARS
                    -----------------------------------------------------------
   TIME STEP LENGTH 1.31414E+06  21902.      365.04      15.210     4.16427E-02
 STRESS PERIOD TIME 2.62829E+06  43805.      730.08      30.420     8.32854E-02
         TOTAL TIME 2.36546E+07 3.94243E+05  6570.7      273.78     0.74957    
1
1
  FLUX ACROSS PARENT-CHILD INTERFACE AT TIME STEP  2 IN STRESS PERIOD    9
  ------------------------------------------------------------------------
 G-N FLUX        PARENT        CHILD         DIFFERENCE      % DIFFERENCE
  RATE IN:      4.7571E+03    4.7571E+03    -8.0078E-02       -0.0017
 RATE OUT:      2.2953E+03    2.2948E+03     5.1904E-01        0.0226
1
                            STRESS PERIOD NO.     10, LENGTH =   30.42000    
                            -----------------------------------------------

                              NUMBER OF TIME STEPS =     2

                               MULTIPLIER FOR DELT =     1.000

                            INITIAL TIME STEP SIZE =   15.21000    

 Parameter:  WELLS1
 WELL NO. LAYER    ROW    COL  F-WELL ID    FARM ID         QMAX         QMAXRESET       LGRGRID         
 --------------------------------------------------------------------------------------------------------
       1      1      8      2          2          1      5.0000E+03              0              0
       2      1      8      8          3          1      5.0000E+03              0              0

 NUMBER OF ACTIVE FARM WELLS:        2

 FARM-ID  NUMBER OF WELLS PER FARM  TOTAL MAX.CAPACITY PER FARM
       1                         2                   10000.0000
       2                         0                       0.0000
       3                         0                       0.0000
       4                         0                       0.0000
       5                         0                       0.0000
       6                         0                       0.0000
       7                         0                       0.0000
       8                         0                       0.0000

Transpiratory and Evaporative Fractions of Crop Consumptive Use
    % Transpiration % Evap. for Precip. % Evap. for Irrig.
    2          0.945          0.055          0.055
    3          0.894          0.106          0.106

FRACTIONS OF IN-EFFICIENT LOSSES TO SW-RUNOFF FROM 
     PRECIPITATION:  IRRIGATION:
    2          0.400          0.300
    3          0.600          0.500
 
 SOLVING FOR HEAD 
                                                   Max.-Head-Change                        Max.-Flux-Residual
  Residual-Control   Outer-Iter.   Inner-Iter.     Column Row Layer    Max.-Head-Change    Column Row Layer    Max.-Flux-Residual            L2-New               L2-Old           Solver-Max-Delh
          0                 1           9             2    8     1      -0.6355330485E+00       2    8    1      -0.9409932221E+03      0.1333061734E+04      0.5105450268E-01     -0.6355330485E+00
          0                 2           8             2    8     1       0.5325113808E-01       2    8    1       0.9007526664E+02      0.1283979262E+03      0.1333061734E+04      0.5325113808E-01
          0                 3           5             2    8     1       0.2687190956E-02       2    8    1       0.4475483810E+01      0.6377522544E+01      0.1283979262E+03      0.2687190956E-02
          0                 4           4             2    8     1       0.1376354327E-03       2    8    1       0.2235916018E+00      0.3194695988E+00      0.6377522544E+01      0.1376354327E-03
          0                 5           2             2    8     1       0.5799322812E-05       2    8    1       0.1119872066E-01      0.1941998654E-01      0.3194695988E+00      0.5799322812E-05

    ------------------------------------------------
       NWT REQUIRED            5 OUTER ITERATIONS 
       AND A TOTAL OF         28 INNER ITERATIONS.
    ------------------------------------------------
                                                   Max.-Head-Change                        Max.-Flux-Residual
  Residual-Control   Outer-Iter.   Inner-Iter.     Column Row Layer    Max.-Head-Change    Column Row Layer    Max.-Flux-Residual            L2-New               L2-Old           Solver-Max-Delh
          0                 1           9             8    8     1       0.1122298848E+01       2    8    1       0.1469069181E+04      0.2083029430E+04      0.1941998654E-01      0.1122298848E+01
          0                 2           8             8    8     1      -0.1046669141E+00       8    8    1      -0.1656773066E+03      0.2322432172E+03      0.2083029430E+04     -0.1046669141E+00
          0                 3           6             8    8     1      -0.5331615758E-02       8    8    1      -0.8391634940E+01      0.1173266064E+02      0.2322432172E+03     -0.5331615758E-02
          0                 4           4             8    8     1      -0.2677431439E-03       8    8    1      -0.4197617631E+00      0.5866809719E+00      0.1173266064E+02     -0.2677431439E-03
          0                 5           2             8    8     1      -0.1348856797E-04       8    8    1      -0.2094074374E-01      0.3174660803E-01      0.5866809719E+00     -0.1348856797E-04

    ------------------------------------------------
       NWT REQUIRED            5 OUTER ITERATIONS 
       AND A TOTAL OF         29 INNER ITERATIONS.
    ------------------------------------------------
                                                   Max.-Head-Change                        Max.-Flux-Residual
  Residual-Control   Outer-Iter.   Inner-Iter.     Column Row Layer    Max.-Head-Change    Column Row Layer    Max.-Flux-Residual            L2-New               L2-Old           Solver-Max-Delh
          0                 1           8             9    9     1       0.5005089897E-01       8    9    1       0.2942428646E+02      0.5988873059E+02      0.3174660803E-01      0.5005089897E-01
          0                 2           6             9    9     1      -0.4234490438E-02       8    9    1      -0.2877801144E+01      0.5883746836E+01      0.5988873059E+02     -0.4234490438E-02
          0                 3           4             9    9     1      -0.2215818974E-03       7    9    1      -0.1541341306E+00      0.3057480303E+00      0.5883746836E+01     -0.2215818974E-03
          0                 4           3             9    9     1      -0.1113696266E-04       8    9    1      -0.8524875273E-02      0.2615261735E-01      0.3057480303E+00     -0.1113696266E-04

    ------------------------------------------------
       NWT REQUIRED            4 OUTER ITERATIONS 
       AND A TOTAL OF         21 INNER ITERATIONS.
    ------------------------------------------------
                                                   Max.-Head-Change                        Max.-Flux-Residual
  Residual-Control   Outer-Iter.   Inner-Iter.     Column Row Layer    Max.-Head-Change    Column Row Layer    Max.-Flux-Residual            L2-New               L2-Old           Solver-Max-Delh
          0                 1           8             9    9     1       0.5253384401E-01       8    9    1       0.2981603498E+02      0.7660778409E+02      0.2615261735E-01      0.5253384401E-01
          0                 2           6             9    9     1      -0.4445936061E-02       7    9    1      -0.2924426135E+01      0.7524675799E+01      0.7660778409E+02     -0.4445936061E-02
          0                 3           4             9    9     1      -0.2291640219E-03       7    9    1      -0.1580351432E+00      0.3892505038E+00      0.7524675799E+01     -0.2291640219E-03
          0                 4           3             5    9     1      -0.1025867784E-04       1    9    1      -0.1168270787E-01      0.2650499891E-01      0.3892505038E+00     -0.1025867784E-04

    ------------------------------------------------
       NWT REQUIRED            4 OUTER ITERATIONS 
       AND A TOTAL OF         21 INNER ITERATIONS.
    ------------------------------------------------
                                                   Max.-Head-Change                        Max.-Flux-Residual
  Residual-Control   Outer-Iter.   Inner-Iter.     Column Row Layer    Max.-Head-Change    Column Row Layer    Max.-Flux-Residual            L2-New               L2-Old           Solver-Max-Delh
          0                 1           8             9    9     1       0.2732307105E-01       1    9    1       0.2239521140E+02      0.4896059247E+02      0.2650499891E-01      0.2732307105E-01
          0                 2           6             9    9     1      -0.2303893274E-02       1    9    1      -0.2205096260E+01      0.4810650486E+01      0.4896059247E+02     -0.2303893274E-02
          0                 3           4             9    9     1      -0.1194209353E-03       1    9    1      -0.1167371445E+00      0.2469207203E+00      0.4810650486E+01     -0.1194209353E-03
          0                 4           3             1    9     1      -0.1203708226E-04       1    9    1      -0.1202160085E-01      0.2583532302E-01      0.2469207203E+00     -0.1203708226E-04

    ------------------------------------------------
       NWT REQUIRED            4 OUTER ITERATIONS 
       AND A TOTAL OF         21 INNER ITERATIONS.
    ------------------------------------------------
                                                   Max.-Head-Change                        Max.-Flux-Residual
  Residual-Control   Outer-Iter.   Inner-Iter.     Column Row Layer    Max.-Head-Change    Column Row Layer    Max.-Flux-Residual            L2-New               L2-Old           Solver-Max-Delh
          0                 1           7             1    9     1       0.1512935689E-01       1    9    1       0.1331233823E+02      0.2444239840E+02      0.2583532302E-01      0.1512935689E-01
          0                 2           5             1    9     1      -0.1291911892E-02       1    9    1      -0.1318547384E+01      0.2417908465E+01      0.2444239840E+02     -0.1291911892E-02
          0                 3           4             1    9     1      -0.6432601276E-04       1    9    1      -0.6710350275E-01      0.1227573175E+00      0.2417908465E+01     -0.6432601276E-04

    ------------------------------------------------
       NWT REQUIRED            3 OUTER ITERATIONS 
       AND A TOTAL OF         16 INNER ITERATIONS.
    ------------------------------------------------
                                                   Max.-Head-Change                        Max.-Flux-Residual
  Residual-Control   Outer-Iter.   Inner-Iter.     Column Row Layer    Max.-Head-Change    Column Row Layer    Max.-Flux-Residual            L2-New               L2-Old           Solver-Max-Delh
          0                 1           7             1    9     1       0.7490420136E-02       1    9    1       0.6789281630E+01      0.1192286434E+02      0.1227573175E+00      0.7490420136E-02
          0                 2           5             1    9     1      -0.6376925437E-03       1    9    1      -0.6679470516E+00      0.1178750026E+01      0.1192286434E+02     -0.6376925437E-03
          0                 3           3             1    9     1      -0.3305795086E-04       1    9    1      -0.3658701526E-01      0.6244765293E-01      0.1178750026E+01     -0.3305795086E-04

    ------------------------------------------------
       NWT REQUIRED            3 OUTER ITERATIONS 
       AND A TOTAL OF         15 INNER ITERATIONS.
    ------------------------------------------------
                                                   Max.-Head-Change                        Max.-Flux-Residual
  Residual-Control   Outer-Iter.   Inner-Iter.     Column Row Layer    Max.-Head-Change    Column Row Layer    Max.-Flux-Residual            L2-New               L2-Old           Solver-Max-Delh
          0                 1           6             1    9     1       0.3346293314E-02       1    9    1       0.3114341154E+01      0.6105938855E+01      0.6244765293E-01      0.3346293314E-02
          0                 2           5             1    9     1      -0.2834272052E-03       1    9    1      -0.3067865476E+00      0.6027470301E+00      0.6105938855E+01     -0.2834272052E-03
          0                 3           3             1    8     1      -0.1737217002E-04       1    9    1      -0.1819829480E-01      0.3554366911E-01      0.6027470301E+00     -0.1737217002E-04

    ------------------------------------------------
       NWT REQUIRED            3 OUTER ITERATIONS 
       AND A TOTAL OF         14 INNER ITERATIONS.
    ------------------------------------------------
                                                   Max.-Head-Change                        Max.-Flux-Residual
  Residual-Control   Outer-Iter.   Inner-Iter.     Column Row Layer    Max.-Head-Change    Column Row Layer    Max.-Flux-Residual            L2-New               L2-Old           Solver-Max-Delh
          0                 1           5             1    9     1       0.1387416794E-02       1    9    1       0.1316904823E+01      0.2805356889E+01      0.3554366911E-01      0.1387416794E-02
          0                 2           4             1    9     1      -0.1182378745E-03       1    9    1      -0.1286545418E+00      0.2797750080E+00      0.2805356889E+01     -0.1182378745E-03
          0                 3           2             9    9     1       0.8018256544E-05       1    1    1      -0.1354924135E-01      0.2263029549E-01      0.2797750080E+00      0.8018256544E-05

    ------------------------------------------------
       NWT REQUIRED            3 OUTER ITERATIONS 
       AND A TOTAL OF         11 INNER ITERATIONS.
    ------------------------------------------------
                                                   Max.-Head-Change                        Max.-Flux-Residual
  Residual-Control   Outer-Iter.   Inner-Iter.     Column Row Layer    Max.-Head-Change    Column Row Layer    Max.-Flux-Residual            L2-New               L2-Old           Solver-Max-Delh
          0                 1           5             1    9     1       0.5165629465E-03       1    9    1       0.4821705348E+00      0.9853597837E+00      0.2263029549E-01      0.5165629465E-03
          0                 2           3             1    9     1      -0.4083909894E-04       1    9    1      -0.4594389640E-01      0.9582746933E-01      0.9853597837E+00     -0.4083909894E-04

    ------------------------------------------------
       NWT REQUIRED            2 OUTER ITERATIONS 
       AND A TOTAL OF          8 INNER ITERATIONS.
    ------------------------------------------------
                                                   Max.-Head-Change                        Max.-Flux-Residual
  Residual-Control   Outer-Iter.   Inner-Iter.     Column Row Layer    Max.-Head-Change    Column Row Layer    Max.-Flux-Residual            L2-New               L2-Old           Solver-Max-Delh
          0                 1           4             9    9     3       0.2339006982E-03       1    9    1       0.1680074413E+00      0.3016096540E+00      0.9582746933E-01      0.2339006982E-03
          0                 2           3             9    9     3      -0.1929041021E-04       1    9    1      -0.1574525057E-01      0.3204958407E-01      0.3016096540E+00     -0.1929041021E-04

    ------------------------------------------------
       NWT REQUIRED            2 OUTER ITERATIONS 
       AND A TOTAL OF          7 INNER ITERATIONS.
    ------------------------------------------------

 OUTPUT CONTROL FOR STRESS PERIOD     10   TIME STEP     1
    SAVE BUDGET
 UBDSV1 SAVING "         STORAGE" ON UNIT7011 AT TIME STEP    1, STRESS PERIOD  10
 UBDSV2 SAVING "   CONSTANT HEAD" ON UNIT7011 AT TIME STEP    1, STRESS PERIOD  10
 UBDSV1 SAVING "FLOW RIGHT FACE " ON UNIT7011 AT TIME STEP    1, STRESS PERIOD  10
 UBDSV1 SAVING "FLOW FRONT FACE " ON UNIT7011 AT TIME STEP    1, STRESS PERIOD  10
 UBDSV1 SAVING "FLOW LOWER FACE " ON UNIT7011 AT TIME STEP    1, STRESS PERIOD  10
 
 
 
 
 
 
 
 
 UBDSV3 SAVING "FARM  NET  RECH." ON UNIT7011 AT TIME STEP    1, STRESS PERIOD  10
 UBDSV4 SAVING " GHOST-NODE HEAD" ON UNIT7011 AT TIME STEP    1, STRESS PERIOD  10
1
  FLUX ACROSS PARENT-CHILD INTERFACE AT TIME STEP  1 IN STRESS PERIOD   10
  ------------------------------------------------------------------------
 G-N FLUX        PARENT        CHILD         DIFFERENCE      % DIFFERENCE
  RATE IN:      4.3677E+03    4.3680E+03    -3.2080E-01       -0.0073
 RATE OUT:      2.3608E+03    2.3603E+03     5.1123E-01        0.0217
 
 SOLVING FOR HEAD 
                                                   Max.-Head-Change                        Max.-Flux-Residual
  Residual-Control   Outer-Iter.   Inner-Iter.     Column Row Layer    Max.-Head-Change    Column Row Layer    Max.-Flux-Residual            L2-New               L2-Old           Solver-Max-Delh
          0                 1           9             8    8     1      -0.1010369710E+01       2    8    1      -0.1515652547E+04      0.2147713745E+04      0.3204958407E-01     -0.1010369710E+01
          0                 2           8             8    8     1       0.8352229290E-01       2    8    1       0.1429893146E+03      0.2015425382E+03      0.2147713745E+04      0.8352229290E-01
          0                 3           6             8    8     1       0.4205008736E-02       2    8    1       0.7090087139E+01      0.9975600125E+01      0.2015425382E+03      0.4205008736E-02
          0                 4           4             8    8     1       0.2153933076E-03       2    8    1       0.3542910216E+00      0.4978732494E+00      0.9975600125E+01      0.2153933076E-03
          0                 5           2             2    8     1       0.9002407460E-05       2    8    1       0.1772665285E-01      0.2734369755E-01      0.4978732494E+00      0.9002407460E-05

    ------------------------------------------------
       NWT REQUIRED            5 OUTER ITERATIONS 
       AND A TOTAL OF         29 INNER ITERATIONS.
    ------------------------------------------------
                                                   Max.-Head-Change                        Max.-Flux-Residual
  Residual-Control   Outer-Iter.   Inner-Iter.     Column Row Layer    Max.-Head-Change    Column Row Layer    Max.-Flux-Residual            L2-New               L2-Old           Solver-Max-Delh
          0                 1           9             8    8     1       0.1130807479E+01       2    8    1       0.1528263268E+04      0.2169914899E+04      0.2734369755E-01      0.1130807479E+01
          0                 2           8             8    8     1      -0.1010335703E+00       8    8    1      -0.1653676811E+03      0.2324345735E+03      0.2169914899E+04     -0.1010335703E+00
          0                 3           6             8    8     1      -0.5136853342E-02       8    8    1      -0.8368762394E+01      0.1173492559E+02      0.2324345735E+03     -0.5136853342E-02
          0                 4           4             8    8     1      -0.2592198442E-03       8    8    1      -0.4185708840E+00      0.5868196082E+00      0.1173492559E+02     -0.2592198442E-03
          0                 5           2             8    8     1      -0.1413793881E-04       8    8    1      -0.2093294304E-01      0.3319823722E-01      0.5868196082E+00     -0.1413793881E-04

    ------------------------------------------------
       NWT REQUIRED            5 OUTER ITERATIONS 
       AND A TOTAL OF         29 INNER ITERATIONS.
    ------------------------------------------------
                                                   Max.-Head-Change                        Max.-Flux-Residual
  Residual-Control   Outer-Iter.   Inner-Iter.     Column Row Layer    Max.-Head-Change    Column Row Layer    Max.-Flux-Residual            L2-New               L2-Old           Solver-Max-Delh
          0                 1           7             9    9     1       0.2197510757E-01       8    9    1       0.1303862122E+02      0.2746713289E+02      0.3319823722E-01      0.2197510757E-01
          0                 2           5             9    9     1      -0.1865867012E-02       9    9    1      -0.1277006136E+01      0.2711885741E+01      0.2746713289E+02     -0.1865867012E-02
          0                 3           4             9    9     1      -0.9674730935E-04       9    9    1      -0.6760016148E-01      0.1396004777E+00      0.2711885741E+01     -0.9674730935E-04

    ------------------------------------------------
       NWT REQUIRED            3 OUTER ITERATIONS 
       AND A TOTAL OF         16 INNER ITERATIONS.
    ------------------------------------------------
                                                   Max.-Head-Change                        Max.-Flux-Residual
  Residual-Control   Outer-Iter.   Inner-Iter.     Column Row Layer    Max.-Head-Change    Column Row Layer    Max.-Flux-Residual            L2-New               L2-Old           Solver-Max-Delh
          0                 1           8             9    9     1       0.4414383997E-01       8    9    1       0.2489945226E+02      0.6515346174E+02      0.1396004777E+00      0.4414383997E-01
          0                 2           6             9    9     1      -0.3731763849E-02       7    9    1      -0.2435042317E+01      0.6402335359E+01      0.6515346174E+02     -0.3731763849E-02
          0                 3           4             9    9     1      -0.1911552895E-03       7    9    1      -0.1304366298E+00      0.3312422439E+00      0.6402335359E+01     -0.1911552895E-03
          0                 4           2             9    9     1      -0.1163291161E-04       1    9    1      -0.1196747815E-01      0.2371891530E-01      0.3312422439E+00     -0.1163291161E-04

    ------------------------------------------------
       NWT REQUIRED            4 OUTER ITERATIONS 
       AND A TOTAL OF         20 INNER ITERATIONS.
    ------------------------------------------------
                                                   Max.-Head-Change                        Max.-Flux-Residual
  Residual-Control   Outer-Iter.   Inner-Iter.     Column Row Layer    Max.-Head-Change    Column Row Layer    Max.-Flux-Residual            L2-New               L2-Old           Solver-Max-Delh
          0                 1           8             9    9     1       0.2767263605E-01       1    9    1       0.1981871395E+02      0.4693099854E+02      0.2371891530E-01      0.2767263605E-01
          0                 2           6             9    9     1      -0.2336638870E-02       1    9    1      -0.1955848763E+01      0.4616088279E+01      0.4693099854E+02     -0.2336638870E-02
          0                 3           4             9    9     1      -0.1228374183E-03       1    9    1      -0.1054709310E+00      0.2414990313E+00      0.4616088279E+01     -0.1228374183E-03
          0                 4           2             1    5     1      -0.5573645631E-05       5    9    1      -0.7230004878E-02      0.1737982165E-01      0.2414990313E+00     -0.5573645631E-05

    ------------------------------------------------
       NWT REQUIRED            4 OUTER ITERATIONS 
       AND A TOTAL OF         20 INNER ITERATIONS.
    ------------------------------------------------
                                                   Max.-Head-Change                        Max.-Flux-Residual
  Residual-Control   Outer-Iter.   Inner-Iter.     Column Row Layer    Max.-Head-Change    Column Row Layer    Max.-Flux-Residual            L2-New               L2-Old           Solver-Max-Delh
          0                 1           7             1    9     1       0.1401730564E-01       1    9    1       0.1213398136E+02      0.2423804374E+02      0.1737982165E-01      0.1401730564E-01
          0                 2           5             1    9     1      -0.1194448751E-02       1    9    1      -0.1201094798E+01      0.2392611271E+01      0.2423804374E+02     -0.1194448751E-02
          0                 3           4             1    9     1      -0.6032341920E-04       1    9    1      -0.6180368154E-01      0.1216560234E+00      0.2392611271E+01     -0.6032341920E-04

    ------------------------------------------------
       NWT REQUIRED            3 OUTER ITERATIONS 
       AND A TOTAL OF         16 INNER ITERATIONS.
    ------------------------------------------------
                                                   Max.-Head-Change                        Max.-Flux-Residual
  Residual-Control   Outer-Iter.   Inner-Iter.     Column Row Layer    Max.-Head-Change    Column Row Layer    Max.-Flux-Residual            L2-New               L2-Old           Solver-Max-Delh
          0                 1           7             1    9     1       0.7003008639E-02       1    9    1       0.6242025547E+01      0.1129287972E+02      0.1216560234E+00      0.7003008639E-02
          0                 2           5             1    9     1      -0.5943894944E-03       1    9    1      -0.6137693332E+00      0.1120463768E+01      0.1129287972E+02     -0.5943894944E-03
          0                 3           3             1    9     1      -0.3371565374E-04       1    9    1      -0.3467098577E-01      0.6113312572E-01      0.1120463768E+01     -0.3371565374E-04

    ------------------------------------------------
       NWT REQUIRED            3 OUTER ITERATIONS 
       AND A TOTAL OF         15 INNER ITERATIONS.
    ------------------------------------------------
                                                   Max.-Head-Change                        Max.-Flux-Residual
  Residual-Control   Outer-Iter.   Inner-Iter.     Column Row Layer    Max.-Head-Change    Column Row Layer    Max.-Flux-Residual            L2-New               L2-Old           Solver-Max-Delh
          0                 1           6             1    9     1       0.3113341621E-02       1    9    1       0.2875269053E+01      0.5596386336E+01      0.6113312572E-01      0.3113341621E-02
          0                 2           4             1    9     1      -0.2659335106E-03       1    9    1      -0.2825994742E+00      0.5541248482E+00      0.5596386336E+01     -0.2659335106E-03
          0                 3           3             1    9     1      -0.1902587940E-04       1    9    1      -0.2568281838E-01      0.3972627491E-01      0.5541248482E+00     -0.1902587940E-04

    ------------------------------------------------
       NWT REQUIRED            3 OUTER ITERATIONS 
       AND A TOTAL OF         13 INNER ITERATIONS.
    ------------------------------------------------
                                                   Max.-Head-Change                        Max.-Flux-Residual
  Residual-Control   Outer-Iter.   Inner-Iter.     Column Row Layer    Max.-Head-Change    Column Row Layer    Max.-Flux-Residual            L2-New               L2-Old           Solver-Max-Delh
          0                 1           5             1    9     1       0.1273577729E-02       1    9    1       0.1218710563E+01      0.2674470344E+01      0.3972627491E-01      0.1273577729E-02
          0                 2           4             1    9     1      -0.1106964999E-03       1    9    1      -0.1269084071E+00      0.2615893731E+00      0.2674470344E+01     -0.1106964999E-03
          0                 3           2             9    9     1       0.1077413801E-04       1    1    1      -0.1250457077E-01      0.2324926599E-01      0.2615893731E+00      0.1077413801E-04

    ------------------------------------------------
       NWT REQUIRED            3 OUTER ITERATIONS 
       AND A TOTAL OF         11 INNER ITERATIONS.
    ------------------------------------------------
                                                   Max.-Head-Change                        Max.-Flux-Residual
  Residual-Control   Outer-Iter.   Inner-Iter.     Column Row Layer    Max.-Head-Change    Column Row Layer    Max.-Flux-Residual            L2-New               L2-Old           Solver-Max-Delh
          0                 1           5             1    9     1       0.4737301984E-03       1    9    1       0.4581321469E+00      0.9953410256E+00      0.2324926599E-01      0.4737301984E-03
          0                 2           3             9    9     1       0.4119833810E-04       1    9    1      -0.4634654167E-01      0.9895806099E-01      0.9953410256E+00      0.4119833810E-04

    ------------------------------------------------
       NWT REQUIRED            2 OUTER ITERATIONS 
       AND A TOTAL OF          8 INNER ITERATIONS.
    ------------------------------------------------
                                                   Max.-Head-Change                        Max.-Flux-Residual
  Residual-Control   Outer-Iter.   Inner-Iter.     Column Row Layer    Max.-Head-Change    Column Row Layer    Max.-Flux-Residual            L2-New               L2-Old           Solver-Max-Delh
          0                 1           4             9    9     3       0.1871561877E-03       1    9    1       0.1456785970E+00      0.2650238654E+00      0.9895806099E-01      0.1871561877E-03
          0                 2           2             9    9     3      -0.1460295294E-04       1    9    1      -0.1712753007E-01      0.3525932776E-01      0.2650238654E+00     -0.1460295294E-04

    ------------------------------------------------
       NWT REQUIRED            2 OUTER ITERATIONS 
       AND A TOTAL OF          6 INNER ITERATIONS.
    ------------------------------------------------

 OUTPUT CONTROL FOR STRESS PERIOD     10   TIME STEP     2
    SAVE HEAD FOR ALL LAYERS
    SAVE BUDGET
 UBDSV1 SAVING "         STORAGE" ON UNIT7011 AT TIME STEP    2, STRESS PERIOD  10
 UBDSV2 SAVING "   CONSTANT HEAD" ON UNIT7011 AT TIME STEP    2, STRESS PERIOD  10
 UBDSV1 SAVING "FLOW RIGHT FACE " ON UNIT7011 AT TIME STEP    2, STRESS PERIOD  10
 UBDSV1 SAVING "FLOW FRONT FACE " ON UNIT7011 AT TIME STEP    2, STRESS PERIOD  10
 UBDSV1 SAVING "FLOW LOWER FACE " ON UNIT7011 AT TIME STEP    2, STRESS PERIOD  10
 
 
 
 
 
 
 
 
 UBDSV3 SAVING "FARM  NET  RECH." ON UNIT7011 AT TIME STEP    2, STRESS PERIOD  10
 UBDSV4 SAVING " GHOST-NODE HEAD" ON UNIT7011 AT TIME STEP    2, STRESS PERIOD  10

 HEAD WILL BE SAVED ON UNIT 2211 AT END OF TIME STEP     2, STRESS PERIOD     10
1
  VOLUMETRIC BUDGET FOR ENTIRE MODEL AT END OF TIME STEP    2 IN STRESS PERIOD     10
  ------------------------------------------------------------------------------

     CUMULATIVE VOLUMES      L**3       RATES FOR THIS TIME STEP      L**3/T
     ------------------                 ------------------------

           IN:                                      IN:
           ---                                      ---
             STORAGE =       92526.4453               STORAGE =           0.5550
       CONSTANT HEAD =           0.0000         CONSTANT HEAD =           0.0000
          FARM WELLS =           0.0000            FARM WELLS =           0.0000
    FARM  NET  RECH. =      854132.1875      FARM  NET  RECH. =        2941.7300
     GHOST-NODE HEAD =     4454778.0000       GHOST-NODE HEAD =        4259.2026

            TOTAL IN =     5401436.5000              TOTAL IN =        7201.4873

          OUT:                                     OUT:
          ----                                     ----
             STORAGE =     3608613.0000               STORAGE =         281.5581
       CONSTANT HEAD =           0.0000         CONSTANT HEAD =           0.0000
          FARM WELLS =     1222705.7500            FARM WELLS =        4474.5947
    FARM  NET  RECH. =           0.0000      FARM  NET  RECH. =           0.0000
     GHOST-NODE HEAD =      570117.6875       GHOST-NODE HEAD =        2445.3445

           TOTAL OUT =     5401436.5000             TOTAL OUT =        7201.4971

            IN - OUT =           0.0000              IN - OUT =      -9.7656E-03

 PERCENT DISCREPANCY =           0.00     PERCENT DISCREPANCY =          -0.00






          TIME SUMMARY AT END OF TIME STEP     2 IN STRESS PERIOD     10
                    SECONDS     MINUTES      HOURS       DAYS        YEARS
                    -----------------------------------------------------------
   TIME STEP LENGTH 1.31414E+06  21902.      365.04      15.210     4.16427E-02
 STRESS PERIOD TIME 2.62829E+06  43805.      730.08      30.420     8.32854E-02
         TOTAL TIME 2.62829E+07 4.38048E+05  7300.8      304.20     0.83285    
1
1
  FLUX ACROSS PARENT-CHILD INTERFACE AT TIME STEP  2 IN STRESS PERIOD   10
  ------------------------------------------------------------------------
 G-N FLUX        PARENT        CHILD         DIFFERENCE      % DIFFERENCE
  RATE IN:      4.2590E+03    4.2592E+03    -2.1582E-01       -0.0051
 RATE OUT:      2.4459E+03    2.4453E+03     5.2026E-01        0.0213
1
                            STRESS PERIOD NO.     11, LENGTH =   30.42000    
                            -----------------------------------------------

                              NUMBER OF TIME STEPS =     2

                               MULTIPLIER FOR DELT =     1.000

                            INITIAL TIME STEP SIZE =   15.21000    

 Parameter:  WELLS1
 WELL NO. LAYER    ROW    COL  F-WELL ID    FARM ID         QMAX         QMAXRESET       LGRGRID         
 --------------------------------------------------------------------------------------------------------
       1      1      8      2          2          1      5.0000E+03              0              0
       2      1      8      8          3          1      5.0000E+03              0              0

 NUMBER OF ACTIVE FARM WELLS:        2

 FARM-ID  NUMBER OF WELLS PER FARM  TOTAL MAX.CAPACITY PER FARM
       1                         2                   10000.0000
       2                         0                       0.0000
       3                         0                       0.0000
       4                         0                       0.0000
       5                         0                       0.0000
       6                         0                       0.0000
       7                         0                       0.0000
       8                         0                       0.0000

Transpiratory and Evaporative Fractions of Crop Consumptive Use
    % Transpiration % Evap. for Precip. % Evap. for Irrig.
    2          0.000          1.000          0.350
    3          0.954          0.046          0.046

FRACTIONS OF IN-EFFICIENT LOSSES TO SW-RUNOFF FROM 
     PRECIPITATION:  IRRIGATION:
    2          0.400          0.300
    3          0.600          0.500
 
 SOLVING FOR HEAD 
                                                   Max.-Head-Change                        Max.-Flux-Residual
  Residual-Control   Outer-Iter.   Inner-Iter.     Column Row Layer    Max.-Head-Change    Column Row Layer    Max.-Flux-Residual            L2-New               L2-Old           Solver-Max-Delh
          0                 1           9             8    8     1       0.1695662699E+01       2    8    1       0.2224918256E+04      0.3249322787E+04      0.3525932776E-01      0.1695662699E+01
          0                 2           8             8    8     1      -0.1548684600E+00       8    8    1      -0.2504662173E+03      0.3626946526E+03      0.3249322787E+04     -0.1548684600E+00
          0                 3           6             8    8     1      -0.7897713049E-02       8    8    1      -0.1286048535E+02      0.1860046275E+02      0.3626946526E+03     -0.7897713049E-02
          0                 4           4             8    8     1      -0.3970755252E-03       8    8    1      -0.6436908913E+00      0.9307462880E+00      0.1860046275E+02     -0.3970755252E-03
          0                 5           3             8    8     1      -0.1947676454E-04       8    8    1      -0.3216250602E-01      0.5020401603E-01      0.9307462880E+00     -0.1947676454E-04

    ------------------------------------------------
       NWT REQUIRED            5 OUTER ITERATIONS 
       AND A TOTAL OF         30 INNER ITERATIONS.
    ------------------------------------------------
                                                   Max.-Head-Change                        Max.-Flux-Residual
  Residual-Control   Outer-Iter.   Inner-Iter.     Column Row Layer    Max.-Head-Change    Column Row Layer    Max.-Flux-Residual            L2-New               L2-Old           Solver-Max-Delh
          0                 1           8             9    1     1       0.2108451940E+00       1    1    1       0.1221961485E+03      0.3636170890E+03      0.5020401603E-01      0.2108451940E+00
          0                 2           7             9    1     1      -0.1843183368E-01       1    1    1      -0.1229248612E+02      0.3661143418E+02      0.3636170890E+03     -0.1843183368E-01
          0                 3           5             9    1     1      -0.9047528384E-03       1    1    1      -0.6023145528E+00      0.1816213699E+01      0.3661143418E+02     -0.9047528384E-03
          0                 4           3             9    1     1      -0.4345992072E-04       1    9    1      -0.3539120895E-01      0.9563462869E-01      0.1816213699E+01     -0.4345992072E-04

    ------------------------------------------------
       NWT REQUIRED            4 OUTER ITERATIONS 
       AND A TOTAL OF         23 INNER ITERATIONS.
    ------------------------------------------------
                                                   Max.-Head-Change                        Max.-Flux-Residual
  Residual-Control   Outer-Iter.   Inner-Iter.     Column Row Layer    Max.-Head-Change    Column Row Layer    Max.-Flux-Residual            L2-New               L2-Old           Solver-Max-Delh
          0                 1           8             1    9     1       0.9990042248E-01       1    9    1       0.8672170905E+02      0.1871722549E+03      0.9563462869E-01      0.9990042248E-01
          0                 2           7             1    9     1      -0.8575852420E-02       1    9    1      -0.8634131712E+01      0.1867471169E+02      0.1871722549E+03     -0.8575852420E-02
          0                 3           5             1    9     1      -0.4367212294E-03       1    9    1      -0.4407401565E+00      0.9408744227E+00      0.1867471169E+02     -0.4367212294E-03
          0                 4           3             1    9     1      -0.2412168787E-04       1    9    1      -0.2329435659E-01      0.5309091574E-01      0.9408744227E+00     -0.2412168787E-04

    ------------------------------------------------
       NWT REQUIRED            4 OUTER ITERATIONS 
       AND A TOTAL OF         23 INNER ITERATIONS.
    ------------------------------------------------
                                                   Max.-Head-Change                        Max.-Flux-Residual
  Residual-Control   Outer-Iter.   Inner-Iter.     Column Row Layer    Max.-Head-Change    Column Row Layer    Max.-Flux-Residual            L2-New               L2-Old           Solver-Max-Delh
          0                 1           8             1    9     1       0.5777593402E-01       1    9    1       0.5151729799E+02      0.9305805617E+02      0.5309091574E-01      0.5777593402E-01
          0                 2           6             1    9     1      -0.4958585603E-02       1    9    1      -0.5125055568E+01      0.9246442444E+01      0.9305805617E+02     -0.4958585603E-02
          0                 3           4             1    9     1      -0.2522765896E-03       1    9    1      -0.2632995174E+00      0.4699185481E+00      0.9246442444E+01     -0.2522765896E-03
          0                 4           3             2    9     1      -0.1179473883E-04       1    9    1      -0.9398220631E-02      0.2609209645E-01      0.4699185481E+00     -0.1179473883E-04

    ------------------------------------------------
       NWT REQUIRED            4 OUTER ITERATIONS 
       AND A TOTAL OF         21 INNER ITERATIONS.
    ------------------------------------------------
                                                   Max.-Head-Change                        Max.-Flux-Residual
  Residual-Control   Outer-Iter.   Inner-Iter.     Column Row Layer    Max.-Head-Change    Column Row Layer    Max.-Flux-Residual            L2-New               L2-Old           Solver-Max-Delh
          0                 1           7             1    9     1       0.2855347074E-01       1    9    1       0.2625634928E+02      0.4302921265E+02      0.2609209645E-01      0.2855347074E-01
          0                 2           6             1    9     1      -0.2449971337E-02       1    9    1      -0.2615391672E+01      0.4270750715E+01      0.4302921265E+02     -0.2449971337E-02
          0                 3           4             1    9     1      -0.1217857012E-03       1    9    1      -0.1259494995E+00      0.2151466889E+00      0.4270750715E+01     -0.1217857012E-03
          0                 4           2             1    9     1      -0.9187710885E-05       1    9    1      -0.1309094485E-01      0.2160955798E-01      0.2151466889E+00     -0.9187710885E-05

    ------------------------------------------------
       NWT REQUIRED            4 OUTER ITERATIONS 
       AND A TOTAL OF         19 INNER ITERATIONS.
    ------------------------------------------------
                                                   Max.-Head-Change                        Max.-Flux-Residual
  Residual-Control   Outer-Iter.   Inner-Iter.     Column Row Layer    Max.-Head-Change    Column Row Layer    Max.-Flux-Residual            L2-New               L2-Old           Solver-Max-Delh
          0                 1           6             1    9     1       0.1217397914E-01       1    9    1       0.1164010257E+02      0.1946441756E+02      0.2160955798E-01      0.1217397914E-01
          0                 2           5             1    9     1      -0.1041600721E-02       1    9    1      -0.1152566170E+01      0.1936366193E+01      0.1946441756E+02     -0.1041600721E-02
          0                 3           3             1    9     1      -0.5643491295E-04       1    9    1      -0.6753619923E-01      0.1020134994E+00      0.1936366193E+01     -0.5643491295E-04

    ------------------------------------------------
       NWT REQUIRED            3 OUTER ITERATIONS 
       AND A TOTAL OF         14 INNER ITERATIONS.
    ------------------------------------------------
                                                   Max.-Head-Change                        Max.-Flux-Residual
  Residual-Control   Outer-Iter.   Inner-Iter.     Column Row Layer    Max.-Head-Change    Column Row Layer    Max.-Flux-Residual            L2-New               L2-Old           Solver-Max-Delh
          0                 1           6             9    1     1      -0.4373794220E-02       1    9    1       0.4424310188E+01      0.9178830158E+01      0.1020134994E+00     -0.4373794220E-02
          0                 2           5             9    1     1       0.3767270642E-03       1    9    1      -0.4377266415E+00      0.9101411495E+00      0.9178830158E+01      0.3767270642E-03
          0                 3           3             9    1     1       0.2229104904E-04       1    9    1      -0.1886920474E-01      0.5316160162E-01      0.9101411495E+00      0.2229104904E-04

    ------------------------------------------------
       NWT REQUIRED            3 OUTER ITERATIONS 
       AND A TOTAL OF         14 INNER ITERATIONS.
    ------------------------------------------------
                                                   Max.-Head-Change                        Max.-Flux-Residual
  Residual-Control   Outer-Iter.   Inner-Iter.     Column Row Layer    Max.-Head-Change    Column Row Layer    Max.-Flux-Residual            L2-New               L2-Old           Solver-Max-Delh
          0                 1           6             9    1     1      -0.2487324424E-02       8    1    1      -0.1471516317E+01      0.4346203121E+01      0.5316160162E-01     -0.2487324424E-02
          0                 2           4             9    1     1       0.2141691499E-03       8    1    1       0.1497572483E+00      0.4330890929E+00      0.4346203121E+01      0.2141691499E-03
          0                 3           3             9    9     1       0.1126952417E-04       8    9    1       0.8544714074E-02      0.2697741444E-01      0.4330890929E+00      0.1126952417E-04

    ------------------------------------------------
       NWT REQUIRED            3 OUTER ITERATIONS 
       AND A TOTAL OF         13 INNER ITERATIONS.
    ------------------------------------------------
                                                   Max.-Head-Change                        Max.-Flux-Residual
  Residual-Control   Outer-Iter.   Inner-Iter.     Column Row Layer    Max.-Head-Change    Column Row Layer    Max.-Flux-Residual            L2-New               L2-Old           Solver-Max-Delh
          0                 1           5             9    1     1      -0.1189443256E-02       1    1    1      -0.7071706000E+00      0.1935729656E+01      0.2697741444E-01     -0.1189443256E-02
          0                 2           4             9    1     1       0.1059666309E-03       8    1    1       0.7596333534E-01      0.1973080903E+00      0.1935729656E+01      0.1059666309E-03
          0                 3           1             5    1     1       0.3643893404E-05       5    1    1       0.7426720113E-02      0.1119077774E-01      0.1973080903E+00      0.3643893404E-05

    ------------------------------------------------
       NWT REQUIRED            3 OUTER ITERATIONS 
       AND A TOTAL OF         10 INNER ITERATIONS.
    ------------------------------------------------
                                                   Max.-Head-Change                        Max.-Flux-Residual
  Residual-Control   Outer-Iter.   Inner-Iter.     Column Row Layer    Max.-Head-Change    Column Row Layer    Max.-Flux-Residual            L2-New               L2-Old           Solver-Max-Delh
          0                 1           5             9    1     1      -0.4942327540E-03       1    1    1      -0.3840210107E+00      0.8982407772E+00      0.1119077774E-01     -0.4942327540E-03
          0                 2           3             9    1     1       0.4491906263E-04       1    1    1       0.3825121722E-01      0.9430710556E-01      0.8982407772E+00      0.4491906263E-04

    ------------------------------------------------
       NWT REQUIRED            2 OUTER ITERATIONS 
       AND A TOTAL OF          8 INNER ITERATIONS.
    ------------------------------------------------
                                                   Max.-Head-Change                        Max.-Flux-Residual
  Residual-Control   Outer-Iter.   Inner-Iter.     Column Row Layer    Max.-Head-Change    Column Row Layer    Max.-Flux-Residual            L2-New               L2-Old           Solver-Max-Delh
          0                 1           4             1    9     1      -0.2167047637E-03       1    9    1      -0.1984945243E+00      0.4511801013E+00      0.9430710556E-01     -0.2167047637E-03
          0                 2           3             1    9     1       0.1846847075E-04       1    9    1       0.2097490092E-01      0.4176025390E-01      0.4511801013E+00      0.1846847075E-04

    ------------------------------------------------
       NWT REQUIRED            2 OUTER ITERATIONS 
       AND A TOTAL OF          7 INNER ITERATIONS.
    ------------------------------------------------

 OUTPUT CONTROL FOR STRESS PERIOD     11   TIME STEP     1
    SAVE BUDGET
 UBDSV1 SAVING "         STORAGE" ON UNIT7011 AT TIME STEP    1, STRESS PERIOD  11
 UBDSV2 SAVING "   CONSTANT HEAD" ON UNIT7011 AT TIME STEP    1, STRESS PERIOD  11
 UBDSV1 SAVING "FLOW RIGHT FACE " ON UNIT7011 AT TIME STEP    1, STRESS PERIOD  11
 UBDSV1 SAVING "FLOW FRONT FACE " ON UNIT7011 AT TIME STEP    1, STRESS PERIOD  11
 UBDSV1 SAVING "FLOW LOWER FACE " ON UNIT7011 AT TIME STEP    1, STRESS PERIOD  11
 
 
 
 
 
 
 
 
 UBDSV3 SAVING "FARM  NET  RECH." ON UNIT7011 AT TIME STEP    1, STRESS PERIOD  11
 UBDSV4 SAVING " GHOST-NODE HEAD" ON UNIT7011 AT TIME STEP    1, STRESS PERIOD  11
1
  FLUX ACROSS PARENT-CHILD INTERFACE AT TIME STEP  1 IN STRESS PERIOD   11
  ------------------------------------------------------------------------
 G-N FLUX        PARENT        CHILD         DIFFERENCE      % DIFFERENCE
  RATE IN:      2.4845E+03    2.4843E+03     1.7725E-01        0.0071
 RATE OUT:      1.6369E+03    1.6374E+03    -4.7009E-01       -0.0287
 
 SOLVING FOR HEAD 
                                                   Max.-Head-Change                        Max.-Flux-Residual
  Residual-Control   Outer-Iter.   Inner-Iter.     Column Row Layer    Max.-Head-Change    Column Row Layer    Max.-Flux-Residual            L2-New               L2-Old           Solver-Max-Delh
          0                 1           9             9    6     1       0.4441631307E+00       1    1    1       0.2381519220E+03      0.6701081764E+03      0.4176025390E-01      0.4441631307E+00
          0                 2           8             9    6     1      -0.3863796121E-01       1    1    1      -0.2388125430E+02      0.6681379584E+02      0.6701081764E+03     -0.3863796121E-01
          0                 3           6             9    6     1      -0.1936154323E-02       1    1    1      -0.1188280710E+01      0.3329233475E+01      0.6681379584E+02     -0.1936154323E-02
          0                 4           4             9    6     1      -0.9686143892E-04       1    1    1      -0.6001613475E-01      0.1682983993E+00      0.3329233475E+01     -0.9686143892E-04

    ------------------------------------------------
       NWT REQUIRED            4 OUTER ITERATIONS 
       AND A TOTAL OF         27 INNER ITERATIONS.
    ------------------------------------------------
                                                   Max.-Head-Change                        Max.-Flux-Residual
  Residual-Control   Outer-Iter.   Inner-Iter.     Column Row Layer    Max.-Head-Change    Column Row Layer    Max.-Flux-Residual            L2-New               L2-Old           Solver-Max-Delh
          0                 1           8             1    1     1       0.1428682950E+00       1    1    1       0.1190770340E+03      0.2870717195E+03      0.1682983993E+00      0.1428682950E+00
          0                 2           7             1    1     1      -0.1239679127E-01       1    1    1      -0.1197478428E+02      0.2881486382E+02      0.2870717195E+03     -0.1239679127E-01
          0                 3           5             1    1     1      -0.6165970092E-03       1    1    1      -0.5938751784E+00      0.1435872210E+01      0.2881486382E+02     -0.6165970092E-03
          0                 4           3             1    1     1      -0.3246786061E-04       1    1    1      -0.3391666175E-01      0.7481060973E-01      0.1435872210E+01     -0.3246786061E-04

    ------------------------------------------------
       NWT REQUIRED            4 OUTER ITERATIONS 
       AND A TOTAL OF         23 INNER ITERATIONS.
    ------------------------------------------------
                                                   Max.-Head-Change                        Max.-Flux-Residual
  Residual-Control   Outer-Iter.   Inner-Iter.     Column Row Layer    Max.-Head-Change    Column Row Layer    Max.-Flux-Residual            L2-New               L2-Old           Solver-Max-Delh
          0                 1           8             1    1     1       0.7034246544E-01       1    1    1       0.5861551418E+02      0.1414647569E+03      0.7481060973E-01      0.7034246544E-01
          0                 2           7             1    1     1      -0.6102251808E-02       1    1    1      -0.5892390518E+01      0.1418432858E+02      0.1414647569E+03     -0.6102251808E-02
          0                 3           5             1    1     1      -0.2976879946E-03       1    1    1      -0.2815298651E+00      0.7021509830E+00      0.1418432858E+02     -0.2976879946E-03
          0                 4           3             1    1     1      -0.2051027791E-04       1    1    1      -0.2393393661E-01      0.4698714146E-01      0.7021509830E+00     -0.2051027791E-04

    ------------------------------------------------
       NWT REQUIRED            4 OUTER ITERATIONS 
       AND A TOTAL OF         23 INNER ITERATIONS.
    ------------------------------------------------
                                                   Max.-Head-Change                        Max.-Flux-Residual
  Residual-Control   Outer-Iter.   Inner-Iter.     Column Row Layer    Max.-Head-Change    Column Row Layer    Max.-Flux-Residual            L2-New               L2-Old           Solver-Max-Delh
          0                 1           8             1    1     1       0.3028771347E-01       1    1    1       0.2534235338E+02      0.6130308617E+02      0.4698714146E-01      0.3028771347E-01
          0                 2           6             1    1     1      -0.2625411232E-02       1    1    1      -0.2546064034E+01      0.6139745718E+01      0.6130308617E+02     -0.2625411232E-02
          0                 3           4             1    1     1      -0.1302748856E-03       1    1    1      -0.1249172597E+00      0.3065674006E+00      0.6139745718E+01     -0.1302748856E-03
          0                 4           2             1    3     1      -0.7815990278E-05       1    4    1      -0.7981635164E-02      0.2209470300E-01      0.3065674006E+00     -0.7815990278E-05

    ------------------------------------------------
       NWT REQUIRED            4 OUTER ITERATIONS 
       AND A TOTAL OF         20 INNER ITERATIONS.
    ------------------------------------------------
                                                   Max.-Head-Change                        Max.-Flux-Residual
  Residual-Control   Outer-Iter.   Inner-Iter.     Column Row Layer    Max.-Head-Change    Column Row Layer    Max.-Flux-Residual            L2-New               L2-Old           Solver-Max-Delh
          0                 1           7             1    1     1       0.1089242695E-01       1    9    1       0.9452955014E+01      0.2307373866E+02      0.2209470300E-01      0.1089242695E-01
          0                 2           5             1    1     1      -0.9441759063E-03       1    9    1      -0.9446295529E+00      0.2310378221E+01      0.2307373866E+02     -0.9441759063E-03
          0                 3           4             1    9     1      -0.5002524095E-04       1    9    1      -0.5535818939E-01      0.1183411574E+00      0.2310378221E+01     -0.5002524095E-04

    ------------------------------------------------
       NWT REQUIRED            3 OUTER ITERATIONS 
       AND A TOTAL OF         16 INNER ITERATIONS.
    ------------------------------------------------
                                                   Max.-Head-Change                        Max.-Flux-Residual
  Residual-Control   Outer-Iter.   Inner-Iter.     Column Row Layer    Max.-Head-Change    Column Row Layer    Max.-Flux-Residual            L2-New               L2-Old           Solver-Max-Delh
          0                 1           6             1    9     1       0.3684277543E-02       1    9    1       0.3389616820E+01      0.7174230378E+01      0.1183411574E+00      0.3684277543E-02
          0                 2           5             1    9     1      -0.3192435674E-03       1    9    1      -0.3448454951E+00      0.7147764312E+00      0.7174230378E+01     -0.3192435674E-03
          0                 3           3             2    9     1      -0.1801731316E-04       1    1    1      -0.1693907159E-01      0.4206685640E-01      0.7147764312E+00     -0.1801731316E-04

    ------------------------------------------------
       NWT REQUIRED            3 OUTER ITERATIONS 
       AND A TOTAL OF         14 INNER ITERATIONS.
    ------------------------------------------------
                                                   Max.-Head-Change                        Max.-Flux-Residual
  Residual-Control   Outer-Iter.   Inner-Iter.     Column Row Layer    Max.-Head-Change    Column Row Layer    Max.-Flux-Residual            L2-New               L2-Old           Solver-Max-Delh
          0                 1           5             2    9     1       0.1054275648E-02       1    9    1       0.9096263535E+00      0.2244477815E+01      0.4206685640E-01      0.1054275648E-02
          0                 2           3             2    9     1      -0.9077574943E-04       2    9    1      -0.8870048792E-01      0.2213985599E+00      0.2244477815E+01     -0.9077574943E-04

    ------------------------------------------------
       NWT REQUIRED            2 OUTER ITERATIONS 
       AND A TOTAL OF          8 INNER ITERATIONS.
    ------------------------------------------------
                                                   Max.-Head-Change                        Max.-Flux-Residual
  Residual-Control   Outer-Iter.   Inner-Iter.     Column Row Layer    Max.-Head-Change    Column Row Layer    Max.-Flux-Residual            L2-New               L2-Old           Solver-Max-Delh
          0                 1           5             6    1     1      -0.7873526343E-03       1    1    1      -0.6252702951E+00      0.1668733545E+01      0.2213985599E+00     -0.7873526343E-03
          0                 2           4             9    1     1       0.6896467225E-04       1    1    1       0.6088471971E-01      0.1669230274E+00      0.1668733545E+01      0.6896467225E-04

    ------------------------------------------------
       NWT REQUIRED            2 OUTER ITERATIONS 
       AND A TOTAL OF          9 INNER ITERATIONS.
    ------------------------------------------------
                                                   Max.-Head-Change                        Max.-Flux-Residual
  Residual-Control   Outer-Iter.   Inner-Iter.     Column Row Layer    Max.-Head-Change    Column Row Layer    Max.-Flux-Residual            L2-New               L2-Old           Solver-Max-Delh
          0                 1           5             1    1     1      -0.6466059900E-03       1    1    1      -0.5266644205E+00      0.1243595423E+01      0.1669230274E+00     -0.6466059900E-03
          0                 2           4             1    1     1       0.5495933834E-04       1    1    1       0.5120660027E-01      0.1268545151E+00      0.1243595423E+01      0.5495933834E-04

    ------------------------------------------------
       NWT REQUIRED            2 OUTER ITERATIONS 
       AND A TOTAL OF          9 INNER ITERATIONS.
    ------------------------------------------------
                                                   Max.-Head-Change                        Max.-Flux-Residual
  Residual-Control   Outer-Iter.   Inner-Iter.     Column Row Layer    Max.-Head-Change    Column Row Layer    Max.-Flux-Residual            L2-New               L2-Old           Solver-Max-Delh
          0                 1           5             1    1     1      -0.4296481556E-03       1    1    1      -0.3660541434E+00      0.7872127059E+00      0.1268545151E+00     -0.4296481556E-03
          0                 2           4             1    1     1       0.3909079343E-04       1    1    1       0.4223093274E-01      0.8260079001E-01      0.7872127059E+00      0.3909079343E-04

    ------------------------------------------------
       NWT REQUIRED            2 OUTER ITERATIONS 
       AND A TOTAL OF          9 INNER ITERATIONS.
    ------------------------------------------------

 OUTPUT CONTROL FOR STRESS PERIOD     11   TIME STEP     2
    SAVE BUDGET
 UBDSV1 SAVING "         STORAGE" ON UNIT7011 AT TIME STEP    2, STRESS PERIOD  11
 UBDSV2 SAVING "   CONSTANT HEAD" ON UNIT7011 AT TIME STEP    2, STRESS PERIOD  11
 UBDSV1 SAVING "FLOW RIGHT FACE " ON UNIT7011 AT TIME STEP    2, STRESS PERIOD  11
 UBDSV1 SAVING "FLOW FRONT FACE " ON UNIT7011 AT TIME STEP    2, STRESS PERIOD  11
 UBDSV1 SAVING "FLOW LOWER FACE " ON UNIT7011 AT TIME STEP    2, STRESS PERIOD  11
 
 
 
 
 
 
 
 
 UBDSV3 SAVING "FARM  NET  RECH." ON UNIT7011 AT TIME STEP    2, STRESS PERIOD  11
 UBDSV4 SAVING " GHOST-NODE HEAD" ON UNIT7011 AT TIME STEP    2, STRESS PERIOD  11
1
  VOLUMETRIC BUDGET FOR ENTIRE MODEL AT END OF TIME STEP    2 IN STRESS PERIOD     11
  ------------------------------------------------------------------------------

     CUMULATIVE VOLUMES      L**3       RATES FOR THIS TIME STEP      L**3/T
     ------------------                 ------------------------

           IN:                                      IN:
           ---                                      ---
             STORAGE =       92526.4453               STORAGE =           0.0000
       CONSTANT HEAD =           0.0000         CONSTANT HEAD =           0.0000
          FARM WELLS =           0.0000            FARM WELLS =           0.0000
    FARM  NET  RECH. =      895311.6875      FARM  NET  RECH. =        1353.6974
     GHOST-NODE HEAD =     4523735.5000       GHOST-NODE HEAD =        2049.3943

            TOTAL IN =     5511573.5000              TOTAL IN =        3403.0918

          OUT:                                     OUT:
          ----                                     ----
             STORAGE =     3665672.5000               STORAGE =        1615.4343
       CONSTANT HEAD =           0.0000         CONSTANT HEAD =           0.0000
          FARM WELLS =     1224669.5000            FARM WELLS =          64.5509
    FARM  NET  RECH. =           0.0000      FARM  NET  RECH. =           0.0000
     GHOST-NODE HEAD =      621230.8125       GHOST-NODE HEAD =        1723.0980

           TOTAL OUT =     5511573.0000             TOTAL OUT =        3403.0833

            IN - OUT =           0.5000              IN - OUT =       8.5449E-03

 PERCENT DISCREPANCY =           0.00     PERCENT DISCREPANCY =           0.00






          TIME SUMMARY AT END OF TIME STEP     2 IN STRESS PERIOD     11
                    SECONDS     MINUTES      HOURS       DAYS        YEARS
                    -----------------------------------------------------------
   TIME STEP LENGTH 1.31414E+06  21902.      365.04      15.210     4.16427E-02
 STRESS PERIOD TIME 2.62829E+06  43805.      730.08      30.420     8.32854E-02
         TOTAL TIME 2.89112E+07 4.81853E+05  8030.9      334.62     0.91614    
1
1
  FLUX ACROSS PARENT-CHILD INTERFACE AT TIME STEP  2 IN STRESS PERIOD   11
  ------------------------------------------------------------------------
 G-N FLUX        PARENT        CHILD         DIFFERENCE      % DIFFERENCE
  RATE IN:      2.0491E+03    2.0494E+03    -3.2275E-01       -0.0157
 RATE OUT:      1.7232E+03    1.7231E+03     8.0688E-02        0.0047
1
                            STRESS PERIOD NO.     12, LENGTH =   30.42000    
                            -----------------------------------------------

                              NUMBER OF TIME STEPS =     2

                               MULTIPLIER FOR DELT =     1.000

                            INITIAL TIME STEP SIZE =   15.21000    

 Parameter:  WELLS1
 WELL NO. LAYER    ROW    COL  F-WELL ID    FARM ID         QMAX         QMAXRESET       LGRGRID         
 --------------------------------------------------------------------------------------------------------
       1      1      8      2          2          1      5.0000E+03              0              0
       2      1      8      8          3          1      5.0000E+03              0              0

 NUMBER OF ACTIVE FARM WELLS:        2

 FARM-ID  NUMBER OF WELLS PER FARM  TOTAL MAX.CAPACITY PER FARM
       1                         2                   10000.0000
       2                         0                       0.0000
       3                         0                       0.0000
       4                         0                       0.0000
       5                         0                       0.0000
       6                         0                       0.0000
       7                         0                       0.0000
       8                         0                       0.0000

Transpiratory and Evaporative Fractions of Crop Consumptive Use
    % Transpiration % Evap. for Precip. % Evap. for Irrig.
    2          0.000          1.000          0.350
    3          0.957          0.043          0.043

FRACTIONS OF IN-EFFICIENT LOSSES TO SW-RUNOFF FROM 
     PRECIPITATION:  IRRIGATION:
    2          0.400          0.300
    3          0.600          0.500
 
 SOLVING FOR HEAD 
                                                   Max.-Head-Change                        Max.-Flux-Residual
  Residual-Control   Outer-Iter.   Inner-Iter.     Column Row Layer    Max.-Head-Change    Column Row Layer    Max.-Flux-Residual            L2-New               L2-Old           Solver-Max-Delh
          0                 1           9             5    5     1       0.5259157302E+00       1    1    1       0.3341014351E+03      0.8751252799E+03      0.8260079001E-01      0.5259157302E+00
          0                 2           8             5    5     1      -0.4580926103E-01       1    1    1      -0.3351103817E+02      0.8732575323E+02      0.8751252799E+03     -0.4580926103E-01
          0                 3           6             5    5     1      -0.2288274275E-02       1    1    1      -0.1665093724E+01      0.4342715708E+01      0.8732575323E+02     -0.2288274275E-02
          0                 4           4             5    5     1      -0.1142982676E-03       1    1    1      -0.8410605148E-01      0.2175949867E+00      0.4342715708E+01     -0.1142982676E-03
          0                 5           2             1    7     1      -0.7274909266E-05       2    1    1      -0.7200379157E-02      0.2098323271E-01      0.2175949867E+00     -0.7274909266E-05

    ------------------------------------------------
       NWT REQUIRED            5 OUTER ITERATIONS 
       AND A TOTAL OF         29 INNER ITERATIONS.
    ------------------------------------------------
                                                   Max.-Head-Change                        Max.-Flux-Residual
  Residual-Control   Outer-Iter.   Inner-Iter.     Column Row Layer    Max.-Head-Change    Column Row Layer    Max.-Flux-Residual            L2-New               L2-Old           Solver-Max-Delh
          0                 1           9             1    1     1       0.1984103944E+00       1    1    1       0.1670345703E+03      0.4195622529E+03      0.2098323271E-01      0.1984103944E+00
          0                 2           7             1    1     1      -0.1721772560E-01       1    1    1      -0.1680679779E+02      0.4210801346E+02      0.4195622529E+03     -0.1721772560E-01
          0                 3           5             1    1     1      -0.8576104212E-03       1    1    1      -0.8411335943E+00      0.2104028635E+01      0.4210801346E+02     -0.8576104212E-03
          0                 4           4             1    2     1      -0.4210715840E-04       1    1    1      -0.3470456880E-01      0.1037130418E+00      0.2104028635E+01     -0.4210715840E-04

    ------------------------------------------------
       NWT REQUIRED            4 OUTER ITERATIONS 
       AND A TOTAL OF         25 INNER ITERATIONS.
    ------------------------------------------------
                                                   Max.-Head-Change                        Max.-Flux-Residual
  Residual-Control   Outer-Iter.   Inner-Iter.     Column Row Layer    Max.-Head-Change    Column Row Layer    Max.-Flux-Residual            L2-New               L2-Old           Solver-Max-Delh
          0                 1           8             1    1     1       0.9781919154E-01       1    1    1       0.8197268166E+02      0.2131575511E+03      0.1037130418E+00      0.9781919154E-01
          0                 2           7             1    1     1      -0.8481144108E-02       1    1    1      -0.8233299911E+01      0.2134704073E+02      0.2131575511E+03     -0.8481144108E-02
          0                 3           5             1    1     1      -0.4222914961E-03       1    1    1      -0.4119186219E+00      0.1070158725E+01      0.2134704073E+02     -0.4222914961E-03
          0                 4           3             1    1     1      -0.2253157777E-04       1    1    1      -0.2113011957E-01      0.5619909304E-01      0.1070158725E+01     -0.2253157777E-04

    ------------------------------------------------
       NWT REQUIRED            4 OUTER ITERATIONS 
       AND A TOTAL OF         23 INNER ITERATIONS.
    ------------------------------------------------
                                                   Max.-Head-Change                        Max.-Flux-Residual
  Residual-Control   Outer-Iter.   Inner-Iter.     Column Row Layer    Max.-Head-Change    Column Row Layer    Max.-Flux-Residual            L2-New               L2-Old           Solver-Max-Delh
          0                 1           8             1    1     1       0.4266696935E-01       1    1    1       0.3577697575E+02      0.9252982243E+02      0.5619909304E-01      0.4266696935E-01
          0                 2           6             1    1     1      -0.3693008051E-02       1    1    1      -0.3582487771E+01      0.9254775566E+01      0.9252982243E+02     -0.3693008051E-02
          0                 3           4             1    1     1      -0.1828494371E-03       1    1    1      -0.1806817128E+00      0.4615096635E+00      0.9254775566E+01     -0.1828494371E-03
          0                 4           3             2    9     1      -0.1091757683E-04       1    9    1      -0.9378647199E-02      0.2940460480E-01      0.4615096635E+00     -0.1091757683E-04

    ------------------------------------------------
       NWT REQUIRED            4 OUTER ITERATIONS 
       AND A TOTAL OF         21 INNER ITERATIONS.
    ------------------------------------------------
                                                   Max.-Head-Change                        Max.-Flux-Residual
  Residual-Control   Outer-Iter.   Inner-Iter.     Column Row Layer    Max.-Head-Change    Column Row Layer    Max.-Flux-Residual            L2-New               L2-Old           Solver-Max-Delh
          0                 1           7             1    1     1       0.1581544373E-01       1    1    1       0.1335222707E+02      0.3348411709E+02      0.2940460480E-01      0.1581544373E-01
          0                 2           6             1    1     1      -0.1369880568E-02       1    1    1      -0.1337308646E+01      0.3346138119E+01      0.3348411709E+02     -0.1369880568E-02
          0                 3           4             1    1     1      -0.6609367289E-04       1    1    1      -0.6319935806E-01      0.1640799742E+00      0.3346138119E+01     -0.6609367289E-04

    ------------------------------------------------
       NWT REQUIRED            3 OUTER ITERATIONS 
       AND A TOTAL OF         17 INNER ITERATIONS.
    ------------------------------------------------
                                                   Max.-Head-Change                        Max.-Flux-Residual
  Residual-Control   Outer-Iter.   Inner-Iter.     Column Row Layer    Max.-Head-Change    Column Row Layer    Max.-Flux-Residual            L2-New               L2-Old           Solver-Max-Delh
          0                 1           6             1    1     2       0.4456217102E-02       1    9    1       0.4034226724E+01      0.9497641422E+01      0.1640799742E+00      0.4456217102E-02
          0                 2           5             1    1     2      -0.3846471598E-03       1    9    1      -0.3983625852E+00      0.9508359359E+00      0.9497641422E+01     -0.3846471598E-03
          0                 3           3             1    1     2      -0.1884477820E-04       1    9    1      -0.1486958604E-01      0.4575513461E-01      0.9508359359E+00     -0.1884477820E-04

    ------------------------------------------------
       NWT REQUIRED            3 OUTER ITERATIONS 
       AND A TOTAL OF         14 INNER ITERATIONS.
    ------------------------------------------------
                                                   Max.-Head-Change                        Max.-Flux-Residual
  Residual-Control   Outer-Iter.   Inner-Iter.     Column Row Layer    Max.-Head-Change    Column Row Layer    Max.-Flux-Residual            L2-New               L2-Old           Solver-Max-Delh
          0                 1           5             9    9     1      -0.2382695833E-02       7    9    1      -0.1545808662E+01      0.2929476687E+01      0.4575513461E-01     -0.2382695833E-02
          0                 2           4             9    9     1       0.2023614270E-03       7    9    1       0.1617709501E+00      0.2930843613E+00      0.2929476687E+01      0.2023614270E-03
          0                 3           2             9    9     1       0.1041011845E-04       9    9    1       0.8935571881E-02      0.1799642911E-01      0.2930843613E+00      0.1041011845E-04

    ------------------------------------------------
       NWT REQUIRED            3 OUTER ITERATIONS 
       AND A TOTAL OF         11 INNER ITERATIONS.
    ------------------------------------------------
                                                   Max.-Head-Change                        Max.-Flux-Residual
  Residual-Control   Outer-Iter.   Inner-Iter.     Column Row Layer    Max.-Head-Change    Column Row Layer    Max.-Flux-Residual            L2-New               L2-Old           Solver-Max-Delh
          0                 1           5             9    9     1      -0.1451925265E-02       8    9    1      -0.8223340965E+00      0.2510507018E+01      0.1799642911E-01     -0.1451925265E-02
          0                 2           4             9    9     1       0.1229182598E-03       1    1    1       0.8232352533E-01      0.2524679398E+00      0.2510507018E+01      0.1229182598E-03
          0                 3           2             9    9     1       0.8638975308E-05       8    9    1       0.8159293910E-02      0.2142733696E-01      0.2524679398E+00      0.8638975308E-05

    ------------------------------------------------
       NWT REQUIRED            3 OUTER ITERATIONS 
       AND A TOTAL OF         11 INNER ITERATIONS.
    ------------------------------------------------
                                                   Max.-Head-Change                        Max.-Flux-Residual
  Residual-Control   Outer-Iter.   Inner-Iter.     Column Row Layer    Max.-Head-Change    Column Row Layer    Max.-Flux-Residual            L2-New               L2-Old           Solver-Max-Delh
          0                 1           5             1    1     1      -0.9399119173E-03       1    1    1      -0.7777089755E+00      0.1942488838E+01      0.2142733696E-01     -0.9399119173E-03
          0                 2           4             1    1     1       0.7916573733E-04       1    1    1       0.7419733447E-01      0.1935370230E+00      0.1942488838E+01      0.7916573733E-04

    ------------------------------------------------
       NWT REQUIRED            2 OUTER ITERATIONS 
       AND A TOTAL OF          9 INNER ITERATIONS.
    ------------------------------------------------
                                                   Max.-Head-Change                        Max.-Flux-Residual
  Residual-Control   Outer-Iter.   Inner-Iter.     Column Row Layer    Max.-Head-Change    Column Row Layer    Max.-Flux-Residual            L2-New               L2-Old           Solver-Max-Delh
          0                 1           5             1    1     1      -0.6330415990E-03       1    1    1      -0.5302484012E+00      0.1237989350E+01      0.1935370230E+00     -0.6330415990E-03
          0                 2           4             1    1     1       0.5433240241E-04       1    1    1       0.5105609237E-01      0.1243045959E+00      0.1237989350E+01      0.5433240241E-04

    ------------------------------------------------
       NWT REQUIRED            2 OUTER ITERATIONS 
       AND A TOTAL OF          9 INNER ITERATIONS.
    ------------------------------------------------
                                                   Max.-Head-Change                        Max.-Flux-Residual
  Residual-Control   Outer-Iter.   Inner-Iter.     Column Row Layer    Max.-Head-Change    Column Row Layer    Max.-Flux-Residual            L2-New               L2-Old           Solver-Max-Delh
          0                 1           5             1    1     1      -0.3538598934E-03       1    1    1      -0.2941979477E+00      0.6965089419E+00      0.1243045959E+00     -0.3538598934E-03
          0                 2           3             2    1     1       0.2952020109E-04       1    9    1       0.3032215242E-01      0.6915317401E-01      0.6965089419E+00      0.2952020109E-04

    ------------------------------------------------
       NWT REQUIRED            2 OUTER ITERATIONS 
       AND A TOTAL OF          8 INNER ITERATIONS.
    ------------------------------------------------

 OUTPUT CONTROL FOR STRESS PERIOD     12   TIME STEP     1
    SAVE BUDGET
 UBDSV1 SAVING "         STORAGE" ON UNIT7011 AT TIME STEP    1, STRESS PERIOD  12
 UBDSV2 SAVING "   CONSTANT HEAD" ON UNIT7011 AT TIME STEP    1, STRESS PERIOD  12
 UBDSV1 SAVING "FLOW RIGHT FACE " ON UNIT7011 AT TIME STEP    1, STRESS PERIOD  12
 UBDSV1 SAVING "FLOW FRONT FACE " ON UNIT7011 AT TIME STEP    1, STRESS PERIOD  12
 UBDSV1 SAVING "FLOW LOWER FACE " ON UNIT7011 AT TIME STEP    1, STRESS PERIOD  12
 
 
 
 
 
 
 
 
 UBDSV3 SAVING "FARM  NET  RECH." ON UNIT7011 AT TIME STEP    1, STRESS PERIOD  12
 UBDSV4 SAVING " GHOST-NODE HEAD" ON UNIT7011 AT TIME STEP    1, STRESS PERIOD  12
1
  FLUX ACROSS PARENT-CHILD INTERFACE AT TIME STEP  1 IN STRESS PERIOD   12
  ------------------------------------------------------------------------
 G-N FLUX        PARENT        CHILD         DIFFERENCE      % DIFFERENCE
  RATE IN:      1.8625E+03    1.8626E+03    -1.1963E-01       -0.0064
 RATE OUT:      1.8470E+03    1.8471E+03    -1.1841E-01       -0.0064
 
 SOLVING FOR HEAD 
                                                   Max.-Head-Change                        Max.-Flux-Residual
  Residual-Control   Outer-Iter.   Inner-Iter.     Column Row Layer    Max.-Head-Change    Column Row Layer    Max.-Flux-Residual            L2-New               L2-Old           Solver-Max-Delh
          0                 1           9             5    4     1       0.4464866671E+00       1    1    1       0.2689794732E+03      0.7282174361E+03      0.6915317401E-01      0.4464866671E+00
          0                 2           8             5    4     1      -0.3891730907E-01       1    1    1      -0.2694572076E+02      0.7274468797E+02      0.7282174361E+03     -0.3891730907E-01
          0                 3           6             5    4     1      -0.1937252662E-02       1    1    1      -0.1330928463E+01      0.3613013281E+01      0.7274468797E+02     -0.1937252662E-02
          0                 4           4             5    5     1      -0.9530989350E-04       1    1    1      -0.7422144513E-01      0.1792219441E+00      0.3613013281E+01     -0.9530989350E-04

    ------------------------------------------------
       NWT REQUIRED            4 OUTER ITERATIONS 
       AND A TOTAL OF         27 INNER ITERATIONS.
    ------------------------------------------------
                                                   Max.-Head-Change                        Max.-Flux-Residual
  Residual-Control   Outer-Iter.   Inner-Iter.     Column Row Layer    Max.-Head-Change    Column Row Layer    Max.-Flux-Residual            L2-New               L2-Old           Solver-Max-Delh
          0                 1           9             1    1     1       0.1608326091E+00       1    1    1       0.1351954490E+03      0.3429965493E+03      0.1792219441E+00      0.1608326091E+00
          0                 2           7             1    1     1      -0.1395381111E-01       1    1    1      -0.1359766724E+02      0.3443696420E+02      0.3429965493E+03     -0.1395381111E-01
          0                 3           5             1    1     1      -0.6975712640E-03       1    1    1      -0.6817455101E+00      0.1722160403E+01      0.3443696420E+02     -0.6975712640E-03
          0                 4           3             1    1     2      -0.3327430595E-04       1    9    1      -0.2960556600E-01      0.8384078765E-01      0.1722160403E+01     -0.3327430595E-04

    ------------------------------------------------
       NWT REQUIRED            4 OUTER ITERATIONS 
       AND A TOTAL OF         24 INNER ITERATIONS.
    ------------------------------------------------
                                                   Max.-Head-Change                        Max.-Flux-Residual
  Residual-Control   Outer-Iter.   Inner-Iter.     Column Row Layer    Max.-Head-Change    Column Row Layer    Max.-Flux-Residual            L2-New               L2-Old           Solver-Max-Delh
          0                 1           8             1    1     1       0.8014054164E-01       1    1    1       0.6724044962E+02      0.1742616563E+03      0.8384078765E-01      0.8014054164E-01
          0                 2           7             1    1     1      -0.6947903786E-02       1    1    1      -0.6754049044E+01      0.1746201050E+02      0.1742616563E+03     -0.6947903786E-02
          0                 3           5             1    1     1      -0.3446169692E-03       1    1    1      -0.3342959197E+00      0.8711654165E+00      0.1746201050E+02     -0.3446169692E-03
          0                 4           3             1    3     1      -0.2003179430E-04       1    1    1      -0.1505256770E-01      0.4760894157E-01      0.8711654165E+00     -0.2003179430E-04

    ------------------------------------------------
       NWT REQUIRED            4 OUTER ITERATIONS 
       AND A TOTAL OF         23 INNER ITERATIONS.
    ------------------------------------------------
                                                   Max.-Head-Change                        Max.-Flux-Residual
  Residual-Control   Outer-Iter.   Inner-Iter.     Column Row Layer    Max.-Head-Change    Column Row Layer    Max.-Flux-Residual            L2-New               L2-Old           Solver-Max-Delh
          0                 1           8             1    1     1       0.3525540736E-01       1    1    1       0.2967421890E+02      0.7626576246E+02      0.4760894157E-01      0.3525540736E-01
          0                 2           6             1    1     1      -0.3051389413E-02       1    1    1      -0.2969706452E+01      0.7636056880E+01      0.7626576246E+02     -0.3051389413E-02
          0                 3           4             1    1     1      -0.1542572831E-03       1    1    1      -0.1519452772E+00      0.3851467017E+00      0.7636056880E+01     -0.1542572831E-03
          0                 4           3             8    1     1      -0.1030846075E-04       8    1    1      -0.7619646261E-02      0.2649470067E-01      0.3851467017E+00     -0.1030846075E-04

    ------------------------------------------------
       NWT REQUIRED            4 OUTER ITERATIONS 
       AND A TOTAL OF         21 INNER ITERATIONS.
    ------------------------------------------------
                                                   Max.-Head-Change                        Max.-Flux-Residual
  Residual-Control   Outer-Iter.   Inner-Iter.     Column Row Layer    Max.-Head-Change    Column Row Layer    Max.-Flux-Residual            L2-New               L2-Old           Solver-Max-Delh
          0                 1           7             1    1     1       0.1321834987E-01       1    1    1       0.1125043749E+02      0.2798642387E+02      0.2649470067E-01      0.1321834987E-01
          0                 2           5             1    1     1      -0.1146824568E-02       1    1    1      -0.1132813257E+01      0.2805292695E+01      0.2798642387E+02     -0.1146824568E-02
          0                 3           4             1    1     2      -0.5696611312E-04       1    1    1      -0.5129097356E-01      0.1376801666E+00      0.2805292695E+01     -0.5696611312E-04

    ------------------------------------------------
       NWT REQUIRED            3 OUTER ITERATIONS 
       AND A TOTAL OF         16 INNER ITERATIONS.
    ------------------------------------------------
                                                   Max.-Head-Change                        Max.-Flux-Residual
  Residual-Control   Outer-Iter.   Inner-Iter.     Column Row Layer    Max.-Head-Change    Column Row Layer    Max.-Flux-Residual            L2-New               L2-Old           Solver-Max-Delh
          0                 1           6             1    1     2       0.3803323094E-02       1    9    1       0.3367307332E+01      0.7957709729E+01      0.1376801666E+00      0.3803323094E-02
          0                 2           5             1    1     2      -0.3286500887E-03       1    9    1      -0.3330714631E+00      0.7997118313E+00      0.7957709729E+01     -0.3286500887E-03
          0                 3           3             1    9     2      -0.1602786129E-04       1    9    1      -0.1387331984E-01      0.3657841374E-01      0.7997118313E+00     -0.1602786129E-04

    ------------------------------------------------
       NWT REQUIRED            3 OUTER ITERATIONS 
       AND A TOTAL OF         14 INNER ITERATIONS.
    ------------------------------------------------
                                                   Max.-Head-Change                        Max.-Flux-Residual
  Residual-Control   Outer-Iter.   Inner-Iter.     Column Row Layer    Max.-Head-Change    Column Row Layer    Max.-Flux-Residual            L2-New               L2-Old           Solver-Max-Delh
          0                 1           5             9    9     2      -0.1728571436E-02       8    9    1      -0.1129761879E+01      0.2251653883E+01      0.3657841374E-01     -0.1728571436E-02
          0                 2           4             9    9     2       0.1496981958E-03       8    9    1       0.1186998541E+00      0.2302342477E+00      0.2251653883E+01      0.1496981958E-03
          0                 3           2             9    9     1       0.8316225938E-05       7    9    1       0.8971338393E-02      0.1872786367E-01      0.2302342477E+00      0.8316225938E-05

    ------------------------------------------------
       NWT REQUIRED            3 OUTER ITERATIONS 
       AND A TOTAL OF         11 INNER ITERATIONS.
    ------------------------------------------------
                                                   Max.-Head-Change                        Max.-Flux-Residual
  Residual-Control   Outer-Iter.   Inner-Iter.     Column Row Layer    Max.-Head-Change    Column Row Layer    Max.-Flux-Residual            L2-New               L2-Old           Solver-Max-Delh
          0                 1           5             9    9     1      -0.1107736298E-02       9    9    1      -0.6338961770E+00      0.2026169425E+01      0.1872786367E-01     -0.1107736298E-02
          0                 2           4             9    9     1       0.9853356189E-04       7    9    1       0.6886805070E-01      0.2075062558E+00      0.2026169425E+01      0.9853356189E-04

    ------------------------------------------------
       NWT REQUIRED            2 OUTER ITERATIONS 
       AND A TOTAL OF          9 INNER ITERATIONS.
    ------------------------------------------------
                                                   Max.-Head-Change                        Max.-Flux-Residual
  Residual-Control   Outer-Iter.   Inner-Iter.     Column Row Layer    Max.-Head-Change    Column Row Layer    Max.-Flux-Residual            L2-New               L2-Old           Solver-Max-Delh
          0                 1           5             5    1     1      -0.7419980997E-03       1    1    1      -0.6031978243E+00      0.1597725887E+01      0.2075062558E+00     -0.7419980997E-03
          0                 2           4             5    1     1       0.6772099324E-04       1    1    1       0.5345096590E-01      0.1632333271E+00      0.1597725887E+01      0.6772099324E-04

    ------------------------------------------------
       NWT REQUIRED            2 OUTER ITERATIONS 
       AND A TOTAL OF          9 INNER ITERATIONS.
    ------------------------------------------------
                                                   Max.-Head-Change                        Max.-Flux-Residual
  Residual-Control   Outer-Iter.   Inner-Iter.     Column Row Layer    Max.-Head-Change    Column Row Layer    Max.-Flux-Residual            L2-New               L2-Old           Solver-Max-Delh
          0                 1           5             1    1     1      -0.4863362539E-03       1    1    1      -0.3949013302E+00      0.1009911831E+01      0.1632333271E+00     -0.4863362539E-03
          0                 2           4             4    1     1       0.4078828442E-04       1    1    1       0.3549358330E-01      0.9984590810E-01      0.1009911831E+01      0.4078828442E-04

    ------------------------------------------------
       NWT REQUIRED            2 OUTER ITERATIONS 
       AND A TOTAL OF          9 INNER ITERATIONS.
    ------------------------------------------------
                                                   Max.-Head-Change                        Max.-Flux-Residual
  Residual-Control   Outer-Iter.   Inner-Iter.     Column Row Layer    Max.-Head-Change    Column Row Layer    Max.-Flux-Residual            L2-New               L2-Old           Solver-Max-Delh
          0                 1           5             1    1     1      -0.2800645383E-03       1    1    1      -0.2408453625E+00      0.5617359730E+00      0.9984590810E-01     -0.2800645383E-03
          0                 2           3             2    1     1       0.2279403876E-04       1    9    1       0.2285330289E-01      0.5557160249E-01      0.5617359730E+00      0.2279403876E-04

    ------------------------------------------------
       NWT REQUIRED            2 OUTER ITERATIONS 
       AND A TOTAL OF          8 INNER ITERATIONS.
    ------------------------------------------------

 OUTPUT CONTROL FOR STRESS PERIOD     12   TIME STEP     2
    PRINT BUDGET
    SAVE HEAD FOR ALL LAYERS
    SAVE BUDGET
 UBDSV1 SAVING "         STORAGE" ON UNIT7011 AT TIME STEP    2, STRESS PERIOD  12
 UBDSV2 SAVING "   CONSTANT HEAD" ON UNIT7011 AT TIME STEP    2, STRESS PERIOD  12
 UBDSV1 SAVING "FLOW RIGHT FACE " ON UNIT7011 AT TIME STEP    2, STRESS PERIOD  12
 UBDSV1 SAVING "FLOW FRONT FACE " ON UNIT7011 AT TIME STEP    2, STRESS PERIOD  12
 UBDSV1 SAVING "FLOW LOWER FACE " ON UNIT7011 AT TIME STEP    2, STRESS PERIOD  12
 
 
 
 
 
 
 
 
 UBDSV3 SAVING "FARM  NET  RECH." ON UNIT7011 AT TIME STEP    2, STRESS PERIOD  12
 UBDSV4 SAVING " GHOST-NODE HEAD" ON UNIT7011 AT TIME STEP    2, STRESS PERIOD  12

 HEAD WILL BE SAVED ON UNIT 2211 AT END OF TIME STEP     2, STRESS PERIOD     12
1
  VOLUMETRIC BUDGET FOR ENTIRE MODEL AT END OF TIME STEP    2 IN STRESS PERIOD     12
  ------------------------------------------------------------------------------

     CUMULATIVE VOLUMES      L**3       RATES FOR THIS TIME STEP      L**3/T
     ------------------                 ------------------------

           IN:                                      IN:
           ---                                      ---
             STORAGE =       92526.4453               STORAGE =           0.0000
       CONSTANT HEAD =           0.0000         CONSTANT HEAD =           0.0000
          FARM WELLS =           0.0000            FARM WELLS =           0.0000
    FARM  NET  RECH. =      960604.1875      FARM  NET  RECH. =        2146.3672
     GHOST-NODE HEAD =     4576776.0000       GHOST-NODE HEAD =        1624.6030

            TOTAL IN =     5629906.5000              TOTAL IN =        3770.9702

          OUT:                                     OUT:
          ----                                     ----
             STORAGE =     3726172.2500               STORAGE =        1815.8013
       CONSTANT HEAD =           0.0000         CONSTANT HEAD =           0.0000
          FARM WELLS =     1224669.5000            FARM WELLS =           0.0000
    FARM  NET  RECH. =           0.0000      FARM  NET  RECH. =           0.0000
     GHOST-NODE HEAD =      679063.3125       GHOST-NODE HEAD =        1955.1327

           TOTAL OUT =     5629905.5000             TOTAL OUT =        3770.9341

            IN - OUT =           1.0000              IN - OUT =       3.6133E-02

 PERCENT DISCREPANCY =           0.00     PERCENT DISCREPANCY =           0.00






          TIME SUMMARY AT END OF TIME STEP     2 IN STRESS PERIOD     12
                    SECONDS     MINUTES      HOURS       DAYS        YEARS
                    -----------------------------------------------------------
   TIME STEP LENGTH 1.31414E+06  21902.      365.04      15.210     4.16427E-02
 STRESS PERIOD TIME 2.62829E+06  43805.      730.08      30.420     8.32854E-02
         TOTAL TIME 3.15395E+07 5.25658E+05  8761.0      365.04     0.99942    
1
1
  FLUX ACROSS PARENT-CHILD INTERFACE AT TIME STEP  2 IN STRESS PERIOD   12
  ------------------------------------------------------------------------
 G-N FLUX        PARENT        CHILD         DIFFERENCE      % DIFFERENCE
  RATE IN:      1.6245E+03    1.6246E+03    -5.5420E-02       -0.0034
 RATE OUT:      1.9550E+03    1.9551E+03    -1.4795E-01       -0.0076
1
                            STRESS PERIOD NO.     13, LENGTH =   30.42000    
                            -----------------------------------------------

                              NUMBER OF TIME STEPS =     2

                               MULTIPLIER FOR DELT =     1.000

                            INITIAL TIME STEP SIZE =   15.21000    

 Parameter:  WELLS1
 WELL NO. LAYER    ROW    COL  F-WELL ID    FARM ID         QMAX         QMAXRESET       LGRGRID         
 --------------------------------------------------------------------------------------------------------
       1      1      8      2          2          1      5.0000E+03              0              0
       2      1      8      8          3          1      5.0000E+03              0              0

 NUMBER OF ACTIVE FARM WELLS:        2

 FARM-ID  NUMBER OF WELLS PER FARM  TOTAL MAX.CAPACITY PER FARM
       1                         2                   10000.0000
       2                         0                       0.0000
       3                         0                       0.0000
       4                         0                       0.0000
       5                         0                       0.0000
       6                         0                       0.0000
       7                         0                       0.0000
       8                         0                       0.0000

Transpiratory and Evaporative Fractions of Crop Consumptive Use
    % Transpiration % Evap. for Precip. % Evap. for Irrig.
    2          0.822          0.178          0.158
    3          0.957          0.043          0.043

FRACTIONS OF IN-EFFICIENT LOSSES TO SW-RUNOFF FROM 
     PRECIPITATION:  IRRIGATION:
    2          0.400          0.300
    3          0.600          0.500
 
 SOLVING FOR HEAD 
                                                   Max.-Head-Change                        Max.-Flux-Residual
  Residual-Control   Outer-Iter.   Inner-Iter.     Column Row Layer    Max.-Head-Change    Column Row Layer    Max.-Flux-Residual            L2-New               L2-Old           Solver-Max-Delh
          0                 1           9             9    4     1       0.3420973506E+00       1    1    1       0.2184978874E+03      0.5581356233E+03      0.5557160249E-01      0.3420973506E+00
          0                 2           8             9    4     1      -0.2983742488E-01       1    1    1      -0.2190633334E+02      0.5590661884E+02      0.5581356233E+03     -0.2983742488E-01
          0                 3           6             9    4     1      -0.1482690300E-02       1    1    1      -0.1097297651E+01      0.2783666050E+01      0.5590661884E+02     -0.1482690300E-02
          0                 4           4             9    4     1      -0.7330065953E-04       1    1    1      -0.5547667458E-01      0.1382540069E+00      0.2783666050E+01     -0.7330065953E-04

    ------------------------------------------------
       NWT REQUIRED            4 OUTER ITERATIONS 
       AND A TOTAL OF         27 INNER ITERATIONS.
    ------------------------------------------------
                                                   Max.-Head-Change                        Max.-Flux-Residual
  Residual-Control   Outer-Iter.   Inner-Iter.     Column Row Layer    Max.-Head-Change    Column Row Layer    Max.-Flux-Residual            L2-New               L2-Old           Solver-Max-Delh
          0                 1           8             1    1     2       0.1281267193E+00       1    1    1       0.1073614782E+03      0.2619367817E+03      0.1382540069E+00      0.1281267193E+00
          0                 2           7             1    1     2      -0.1107182586E-01       1    1    1      -0.1077560209E+02      0.2628634020E+02      0.2619367817E+03     -0.1107182586E-01
          0                 3           5             1    1     2      -0.5529733558E-03       1    1    1      -0.5425392680E+00      0.1314317650E+01      0.2628634020E+02     -0.5529733558E-03
          0                 4           3             1    3     1      -0.2985479390E-04       1    1    1      -0.2711876144E-01      0.7011903256E-01      0.1314317650E+01     -0.2985479390E-04

    ------------------------------------------------
       NWT REQUIRED            4 OUTER ITERATIONS 
       AND A TOTAL OF         23 INNER ITERATIONS.
    ------------------------------------------------
                                                   Max.-Head-Change                        Max.-Flux-Residual
  Residual-Control   Outer-Iter.   Inner-Iter.     Column Row Layer    Max.-Head-Change    Column Row Layer    Max.-Flux-Residual            L2-New               L2-Old           Solver-Max-Delh
          0                 1           8             1    1     2       0.6080636332E-01       1    1    1       0.5042363139E+02      0.1276884146E+03      0.7011903256E-01      0.6080636332E-01
          0                 2           7             1    1     2      -0.5254168417E-02       1    1    1      -0.5055608682E+01      0.1279929708E+02      0.1276884146E+03     -0.5254168417E-02
          0                 3           4             1    1     2      -0.2619513223E-03       1    1    1      -0.2479634706E+00      0.6358821038E+00      0.1279929708E+02     -0.2619513223E-03
          0                 4           3             1    1     1      -0.1626809373E-04       1    1    1      -0.1843934495E-01      0.3798143284E-01      0.6358821038E+00     -0.1626809373E-04

    ------------------------------------------------
       NWT REQUIRED            4 OUTER ITERATIONS 
       AND A TOTAL OF         22 INNER ITERATIONS.
    ------------------------------------------------
                                                   Max.-Head-Change                        Max.-Flux-Residual
  Residual-Control   Outer-Iter.   Inner-Iter.     Column Row Layer    Max.-Head-Change    Column Row Layer    Max.-Flux-Residual            L2-New               L2-Old           Solver-Max-Delh
          0                 1           8             1    1     2       0.2530996193E-01       1    1    1       0.2071851364E+02      0.5349145187E+02      0.3798143284E-01      0.2530996193E-01
          0                 2           6             1    1     2      -0.2186519507E-02       1    1    1      -0.2074464494E+01      0.5353700266E+01      0.5349145187E+02     -0.2186519507E-02
          0                 3           4             1    1     2      -0.1093623361E-03       1    1    1      -0.1016222634E+00      0.2651002146E+00      0.5353700266E+01     -0.1093623361E-03
          0                 4           3             1    9     1      -0.1190851127E-04       1    9    1      -0.1183580089E-01      0.2798185245E-01      0.2651002146E+00     -0.1190851127E-04

    ------------------------------------------------
       NWT REQUIRED            4 OUTER ITERATIONS 
       AND A TOTAL OF         21 INNER ITERATIONS.
    ------------------------------------------------
                                                   Max.-Head-Change                        Max.-Flux-Residual
  Residual-Control   Outer-Iter.   Inner-Iter.     Column Row Layer    Max.-Head-Change    Column Row Layer    Max.-Flux-Residual            L2-New               L2-Old           Solver-Max-Delh
          0                 1           7             2    9     2       0.8849018652E-02       1    9    1       0.7130883581E+01      0.1824675284E+02      0.2798185245E-01      0.8849018652E-02
          0                 2           5             2    9     2      -0.7636964156E-03       1    1    1      -0.7081395284E+00      0.1828860577E+01      0.1824675284E+02     -0.7636964156E-03
          0                 3           3             1    1     1      -0.3889656935E-04       1    1    1      -0.3721953905E-01      0.9649115791E-01      0.1828860577E+01     -0.3889656935E-04

    ------------------------------------------------
       NWT REQUIRED            3 OUTER ITERATIONS 
       AND A TOTAL OF         15 INNER ITERATIONS.
    ------------------------------------------------
                                                   Max.-Head-Change                        Max.-Flux-Residual
  Residual-Control   Outer-Iter.   Inner-Iter.     Column Row Layer    Max.-Head-Change    Column Row Layer    Max.-Flux-Residual            L2-New               L2-Old           Solver-Max-Delh
          0                 1           6             1    9     2       0.2473113289E-02       1    9    1       0.2043497517E+01      0.4490459434E+01      0.9649115791E-01      0.2473113289E-02
          0                 2           4             1    9     2      -0.2126944916E-03       1    9    1      -0.2030145222E+00      0.4485894637E+00      0.4490459434E+01     -0.2126944916E-03
          0                 3           3             2    9     1      -0.1271772170E-04       1    9    1      -0.1149960450E-01      0.3232865356E-01      0.4485894637E+00     -0.1271772170E-04

    ------------------------------------------------
       NWT REQUIRED            3 OUTER ITERATIONS 
       AND A TOTAL OF         13 INNER ITERATIONS.
    ------------------------------------------------
                                                   Max.-Head-Change                        Max.-Flux-Residual
  Residual-Control   Outer-Iter.   Inner-Iter.     Column Row Layer    Max.-Head-Change    Column Row Layer    Max.-Flux-Residual            L2-New               L2-Old           Solver-Max-Delh
          0                 1           5             9    9     2      -0.1414357613E-02       9    9    1      -0.8251302683E+00      0.2051223253E+01      0.3232865356E-01     -0.1414357613E-02
          0                 2           4             9    9     2       0.1208570105E-03       9    9    1       0.8369032884E-01      0.2054607607E+00      0.2051223253E+01      0.1208570105E-03
          0                 3           2             9    9     1       0.8537550606E-05       9    9    1       0.8316927997E-02      0.1727341258E-01      0.2054607607E+00      0.8537550606E-05

    ------------------------------------------------
       NWT REQUIRED            3 OUTER ITERATIONS 
       AND A TOTAL OF         11 INNER ITERATIONS.
    ------------------------------------------------
                                                   Max.-Head-Change                        Max.-Flux-Residual
  Residual-Control   Outer-Iter.   Inner-Iter.     Column Row Layer    Max.-Head-Change    Column Row Layer    Max.-Flux-Residual            L2-New               L2-Old           Solver-Max-Delh
          0                 1           5             9    9     2      -0.9896185182E-03       1    1    1      -0.6770781870E+00      0.1962204051E+01      0.1727341258E-01     -0.9896185182E-03
          0                 2           4             9    9     2       0.8328508860E-04       1    1    1       0.6805196742E-01      0.1957582917E+00      0.1962204051E+01      0.8328508860E-04

    ------------------------------------------------
       NWT REQUIRED            2 OUTER ITERATIONS 
       AND A TOTAL OF          9 INNER ITERATIONS.
    ------------------------------------------------
                                                   Max.-Head-Change                        Max.-Flux-Residual
  Residual-Control   Outer-Iter.   Inner-Iter.     Column Row Layer    Max.-Head-Change    Column Row Layer    Max.-Flux-Residual            L2-New               L2-Old           Solver-Max-Delh
          0                 1           5             5    1     2      -0.6566465724E-03       1    1    1      -0.5399187228E+00      0.1371943662E+01      0.1957582917E+00     -0.6566465724E-03
          0                 2           4             1    1     1       0.5713614436E-04       1    1    1       0.5549414735E-01      0.1382236398E+00      0.1371943662E+01      0.5713614436E-04

    ------------------------------------------------
       NWT REQUIRED            2 OUTER ITERATIONS 
       AND A TOTAL OF          9 INNER ITERATIONS.
    ------------------------------------------------
                                                   Max.-Head-Change                        Max.-Flux-Residual
  Residual-Control   Outer-Iter.   Inner-Iter.     Column Row Layer    Max.-Head-Change    Column Row Layer    Max.-Flux-Residual            L2-New               L2-Old           Solver-Max-Delh
          0                 1           5             1    1     1      -0.3974994087E-03       1    1    1      -0.3395035769E+00      0.8056571500E+00      0.1382236398E+00     -0.3974994087E-03
          0                 2           3             4    1     1       0.3663994208E-04       1    1    1       0.3004796908E-01      0.8436212406E-01      0.8056571500E+00      0.3663994208E-04

    ------------------------------------------------
       NWT REQUIRED            2 OUTER ITERATIONS 
       AND A TOTAL OF          8 INNER ITERATIONS.
    ------------------------------------------------

 OUTPUT CONTROL FOR STRESS PERIOD     13   TIME STEP     1
    SAVE BUDGET
 UBDSV1 SAVING "         STORAGE" ON UNIT7011 AT TIME STEP    1, STRESS PERIOD  13
 UBDSV2 SAVING "   CONSTANT HEAD" ON UNIT7011 AT TIME STEP    1, STRESS PERIOD  13
 UBDSV1 SAVING "FLOW RIGHT FACE " ON UNIT7011 AT TIME STEP    1, STRESS PERIOD  13
 UBDSV1 SAVING "FLOW FRONT FACE " ON UNIT7011 AT TIME STEP    1, STRESS PERIOD  13
 UBDSV1 SAVING "FLOW LOWER FACE " ON UNIT7011 AT TIME STEP    1, STRESS PERIOD  13
 
 
 
 
 
 
 
 
 UBDSV3 SAVING "FARM  NET  RECH." ON UNIT7011 AT TIME STEP    1, STRESS PERIOD  13
 UBDSV4 SAVING " GHOST-NODE HEAD" ON UNIT7011 AT TIME STEP    1, STRESS PERIOD  13
1
  FLUX ACROSS PARENT-CHILD INTERFACE AT TIME STEP  1 IN STRESS PERIOD   13
  ------------------------------------------------------------------------
 G-N FLUX        PARENT        CHILD         DIFFERENCE      % DIFFERENCE
  RATE IN:      1.5381E+03    1.5387E+03    -5.4761E-01       -0.0356
 RATE OUT:      1.9848E+03    1.9851E+03    -2.4670E-01       -0.0124
 
 SOLVING FOR HEAD 
                                                   Max.-Head-Change                        Max.-Flux-Residual
  Residual-Control   Outer-Iter.   Inner-Iter.     Column Row Layer    Max.-Head-Change    Column Row Layer    Max.-Flux-Residual            L2-New               L2-Old           Solver-Max-Delh
          0                 1           9             8    4     1       0.2902705273E+00       1    1    1       0.1953618880E+03      0.5005415409E+03      0.8436212406E-01      0.2902705273E+00
          0                 2           8             9    4     1      -0.2528374750E-01       1    1    1      -0.1957481038E+02      0.5013861809E+02      0.5005415409E+03     -0.2528374750E-01
          0                 3           6             5    4     1      -0.1254247848E-02       1    1    1      -0.9759858556E+00      0.2492320690E+01      0.5013861809E+02     -0.1254247848E-02
          0                 4           4             5    4     4      -0.6370712724E-04       1    1    1      -0.5027395475E-01      0.1222230037E+00      0.2492320690E+01     -0.6370712724E-04

    ------------------------------------------------
       NWT REQUIRED            4 OUTER ITERATIONS 
       AND A TOTAL OF         27 INNER ITERATIONS.
    ------------------------------------------------
                                                   Max.-Head-Change                        Max.-Flux-Residual
  Residual-Control   Outer-Iter.   Inner-Iter.     Column Row Layer    Max.-Head-Change    Column Row Layer    Max.-Flux-Residual            L2-New               L2-Old           Solver-Max-Delh
          0                 1           8             1    1     2       0.1155580476E+00       1    1    1       0.9610893356E+02      0.2338416510E+03      0.1222230037E+00      0.1155580476E+00
          0                 2           7             1    1     2      -0.9985172417E-02       1    1    1      -0.9645806366E+01      0.2346838833E+02      0.2338416510E+03     -0.9985172417E-02
          0                 3           5             1    1     2      -0.4987686685E-03       1    1    1      -0.4805243353E+00      0.1173168604E+01      0.2346838833E+02     -0.4987686685E-03
          0                 4           3             1    2     1      -0.2590968819E-04       1    1    1      -0.2440621494E-01      0.6127171547E-01      0.1173168604E+01     -0.2590968819E-04

    ------------------------------------------------
       NWT REQUIRED            4 OUTER ITERATIONS 
       AND A TOTAL OF         23 INNER ITERATIONS.
    ------------------------------------------------
                                                   Max.-Head-Change                        Max.-Flux-Residual
  Residual-Control   Outer-Iter.   Inner-Iter.     Column Row Layer    Max.-Head-Change    Column Row Layer    Max.-Flux-Residual            L2-New               L2-Old           Solver-Max-Delh
          0                 1           8             1    1     2       0.5525779564E-01       1    1    1       0.4590553622E+02      0.1153195936E+03      0.6127171547E-01      0.5525779564E-01
          0                 2           7             1    1     2      -0.4774518386E-02       1    1    1      -0.4596494872E+01      0.1155854208E+02      0.1153195936E+03     -0.4774518386E-02
          0                 3           4             1    1     2      -0.2385108672E-03       1    1    1      -0.2288369479E+00      0.5756570233E+00      0.1155854208E+02     -0.2385108672E-03
          0                 4           3             7    5     3      -0.1297833262E-04       1    9    1      -0.1110603602E-01      0.3091981918E-01      0.5756570233E+00     -0.1297833262E-04

    ------------------------------------------------
       NWT REQUIRED            4 OUTER ITERATIONS 
       AND A TOTAL OF         22 INNER ITERATIONS.
    ------------------------------------------------
                                                   Max.-Head-Change                        Max.-Flux-Residual
  Residual-Control   Outer-Iter.   Inner-Iter.     Column Row Layer    Max.-Head-Change    Column Row Layer    Max.-Flux-Residual            L2-New               L2-Old           Solver-Max-Delh
          0                 1           8             1    1     2       0.2317906767E-01       1    1    1       0.1923865718E+02      0.4907792538E+02      0.3091981918E-01      0.2317906767E-01
          0                 2           6             1    1     2      -0.2002237901E-02       1    1    1      -0.1920169432E+01      0.4910810701E+01      0.4907792538E+02     -0.2002237901E-02
          0                 3           4             1    1     2      -0.1000008410E-03       1    1    1      -0.9674557438E-01      0.2440046994E+00      0.4910810701E+01     -0.1000008410E-03
          0                 4           3             1    1     1      -0.9738089489E-05       1    1    1      -0.1306741941E-01      0.2787381259E-01      0.2440046994E+00     -0.9738089489E-05

    ------------------------------------------------
       NWT REQUIRED            4 OUTER ITERATIONS 
       AND A TOTAL OF         21 INNER ITERATIONS.
    ------------------------------------------------
                                                   Max.-Head-Change                        Max.-Flux-Residual
  Residual-Control   Outer-Iter.   Inner-Iter.     Column Row Layer    Max.-Head-Change    Column Row Layer    Max.-Flux-Residual            L2-New               L2-Old           Solver-Max-Delh
          0                 1           7             1    9     2       0.8282939667E-02       1    9    1       0.6875741931E+01      0.1720475495E+02      0.2787381259E-01      0.8282939667E-02
          0                 2           5             1    9     2      -0.7145759111E-03       1    1    1      -0.6864906700E+00      0.1724571243E+01      0.1720475495E+02     -0.7145759111E-03
          0                 3           3             2    9     1      -0.3817926504E-04       1    9    1      -0.3523298079E-01      0.8933793528E-01      0.1724571243E+01     -0.3817926504E-04

    ------------------------------------------------
       NWT REQUIRED            3 OUTER ITERATIONS 
       AND A TOTAL OF         15 INNER ITERATIONS.
    ------------------------------------------------
                                                   Max.-Head-Change                        Max.-Flux-Residual
  Residual-Control   Outer-Iter.   Inner-Iter.     Column Row Layer    Max.-Head-Change    Column Row Layer    Max.-Flux-Residual            L2-New               L2-Old           Solver-Max-Delh
          0                 1           6             1    9     2       0.2462952991E-02       1    9    1       0.2141551347E+01      0.4480304442E+01      0.8933793528E-01      0.2462952991E-02
          0                 2           4             1    9     2      -0.2123032539E-03       1    9    1      -0.2076618400E+00      0.4462817507E+00      0.4480304442E+01     -0.2123032539E-03
          0                 3           2             1    9     1      -0.1069111243E-04       1    9    1      -0.1260247512E-01      0.2479393692E-01      0.4462817507E+00     -0.1069111243E-04

    ------------------------------------------------
       NWT REQUIRED            3 OUTER ITERATIONS 
       AND A TOTAL OF         12 INNER ITERATIONS.
    ------------------------------------------------
                                                   Max.-Head-Change                        Max.-Flux-Residual
  Residual-Control   Outer-Iter.   Inner-Iter.     Column Row Layer    Max.-Head-Change    Column Row Layer    Max.-Flux-Residual            L2-New               L2-Old           Solver-Max-Delh
          0                 1           5             9    9     3      -0.1168661269E-02       8    9    1      -0.6605716011E+00      0.1750975854E+01      0.2479393692E-01     -0.1168661269E-02
          0                 2           4             9    9     2       0.1001724784E-03       8    9    1       0.6932971923E-01      0.1764645635E+00      0.1750975854E+01      0.1001724784E-03
          0                 3           2             9    1     1       0.8459333617E-05       1    5    1       0.8432650240E-02      0.1913888314E-01      0.1764645635E+00      0.8459333617E-05

    ------------------------------------------------
       NWT REQUIRED            3 OUTER ITERATIONS 
       AND A TOTAL OF         11 INNER ITERATIONS.
    ------------------------------------------------
                                                   Max.-Head-Change                        Max.-Flux-Residual
  Residual-Control   Outer-Iter.   Inner-Iter.     Column Row Layer    Max.-Head-Change    Column Row Layer    Max.-Flux-Residual            L2-New               L2-Old           Solver-Max-Delh
          0                 1           5             9    1     2      -0.8843269902E-03       1    1    1      -0.5342250220E+00      0.1674977973E+01      0.1913888314E-01     -0.8843269902E-03
          0                 2           4             9    1     2       0.7652349707E-04       1    1    1       0.4951752746E-01      0.1729446772E+00      0.1674977973E+01      0.7652349707E-04

    ------------------------------------------------
       NWT REQUIRED            2 OUTER ITERATIONS 
       AND A TOTAL OF          9 INNER ITERATIONS.
    ------------------------------------------------
                                                   Max.-Head-Change                        Max.-Flux-Residual
  Residual-Control   Outer-Iter.   Inner-Iter.     Column Row Layer    Max.-Head-Change    Column Row Layer    Max.-Flux-Residual            L2-New               L2-Old           Solver-Max-Delh
          0                 1           5             5    1     2      -0.5760867912E-03       1    1    1      -0.4496535630E+00      0.1190217268E+01      0.1729446772E+00     -0.5760867912E-03
          0                 2           4             6    1     1       0.5080079927E-04       1    1    1       0.4565730039E-01      0.1228620938E+00      0.1190217268E+01      0.5080079927E-04

    ------------------------------------------------
       NWT REQUIRED            2 OUTER ITERATIONS 
       AND A TOTAL OF          9 INNER ITERATIONS.
    ------------------------------------------------
                                                   Max.-Head-Change                        Max.-Flux-Residual
  Residual-Control   Outer-Iter.   Inner-Iter.     Column Row Layer    Max.-Head-Change    Column Row Layer    Max.-Flux-Residual            L2-New               L2-Old           Solver-Max-Delh
          0                 1           5             1    1     1      -0.3526818513E-03       1    1    1      -0.2958458844E+00      0.7120923202E+00      0.1228620938E+00     -0.3526818513E-03
          0                 2           3             2    1     1       0.3051989717E-04       1    1    1       0.2147620672E-01      0.6784824820E-01      0.7120923202E+00      0.3051989717E-04

    ------------------------------------------------
       NWT REQUIRED            2 OUTER ITERATIONS 
       AND A TOTAL OF          8 INNER ITERATIONS.
    ------------------------------------------------

 OUTPUT CONTROL FOR STRESS PERIOD     13   TIME STEP     2
    SAVE BUDGET
 UBDSV1 SAVING "         STORAGE" ON UNIT7011 AT TIME STEP    2, STRESS PERIOD  13
 UBDSV2 SAVING "   CONSTANT HEAD" ON UNIT7011 AT TIME STEP    2, STRESS PERIOD  13
 UBDSV1 SAVING "FLOW RIGHT FACE " ON UNIT7011 AT TIME STEP    2, STRESS PERIOD  13
 UBDSV1 SAVING "FLOW FRONT FACE " ON UNIT7011 AT TIME STEP    2, STRESS PERIOD  13
 UBDSV1 SAVING "FLOW LOWER FACE " ON UNIT7011 AT TIME STEP    2, STRESS PERIOD  13
 
 
 
 
 
 
 
 
 UBDSV3 SAVING "FARM  NET  RECH." ON UNIT7011 AT TIME STEP    2, STRESS PERIOD  13
 UBDSV4 SAVING " GHOST-NODE HEAD" ON UNIT7011 AT TIME STEP    2, STRESS PERIOD  13
1
  VOLUMETRIC BUDGET FOR ENTIRE MODEL AT END OF TIME STEP    2 IN STRESS PERIOD     13
  ------------------------------------------------------------------------------

     CUMULATIVE VOLUMES      L**3       RATES FOR THIS TIME STEP      L**3/T
     ------------------                 ------------------------

           IN:                                      IN:
           ---                                      ---
             STORAGE =       92526.4453               STORAGE =           0.0000
       CONSTANT HEAD =           0.0000         CONSTANT HEAD =           0.0000
          FARM WELLS =           0.0000            FARM WELLS =           0.0000
    FARM  NET  RECH. =     1014993.5625      FARM  NET  RECH. =        1787.9495
     GHOST-NODE HEAD =     4622545.0000       GHOST-NODE HEAD =        1470.4517

            TOTAL IN =     5730065.0000              TOTAL IN =        3258.4011

          OUT:                                     OUT:
          ----                                     ----
             STORAGE =     3764829.5000               STORAGE =        1200.0009
       CONSTANT HEAD =           0.0000         CONSTANT HEAD =           0.0000
          FARM WELLS =     1224669.5000            FARM WELLS =           0.0000
    FARM  NET  RECH. =           0.0000      FARM  NET  RECH. =           0.0000
     GHOST-NODE HEAD =      740563.6875       GHOST-NODE HEAD =        2058.3625

           TOTAL OUT =     5730062.5000             TOTAL OUT =        3258.3633

            IN - OUT =           2.5000              IN - OUT =       3.7842E-02

 PERCENT DISCREPANCY =           0.00     PERCENT DISCREPANCY =           0.00






          TIME SUMMARY AT END OF TIME STEP     2 IN STRESS PERIOD     13
                    SECONDS     MINUTES      HOURS       DAYS        YEARS
                    -----------------------------------------------------------
   TIME STEP LENGTH 1.31414E+06  21902.      365.04      15.210     4.16427E-02
 STRESS PERIOD TIME 2.62829E+06  43805.      730.08      30.420     8.32854E-02
         TOTAL TIME 3.41677E+07 5.69462E+05  9491.0      395.46      1.0827    
1
1
  FLUX ACROSS PARENT-CHILD INTERFACE AT TIME STEP  2 IN STRESS PERIOD   13
  ------------------------------------------------------------------------
 G-N FLUX        PARENT        CHILD         DIFFERENCE      % DIFFERENCE
  RATE IN:      1.4696E+03    1.4705E+03    -8.6255E-01       -0.0587
 RATE OUT:      2.0578E+03    2.0584E+03    -5.1855E-01       -0.0252
1
                            STRESS PERIOD NO.     14, LENGTH =   30.42000    
                            -----------------------------------------------

                              NUMBER OF TIME STEPS =     2

                               MULTIPLIER FOR DELT =     1.000

                            INITIAL TIME STEP SIZE =   15.21000    

 Parameter:  WELLS1
 WELL NO. LAYER    ROW    COL  F-WELL ID    FARM ID         QMAX         QMAXRESET       LGRGRID         
 --------------------------------------------------------------------------------------------------------
       1      1      8      2          2          1      5.0000E+03              0              0
       2      1      8      8          3          1      5.0000E+03              0              0

 NUMBER OF ACTIVE FARM WELLS:        2

 FARM-ID  NUMBER OF WELLS PER FARM  TOTAL MAX.CAPACITY PER FARM
       1                         2                   10000.0000
       2                         0                       0.0000
       3                         0                       0.0000
       4                         0                       0.0000
       5                         0                       0.0000
       6                         0                       0.0000
       7                         0                       0.0000
       8                         0                       0.0000

Transpiratory and Evaporative Fractions of Crop Consumptive Use
    % Transpiration % Evap. for Precip. % Evap. for Irrig.
    2          0.822          0.178          0.158
    3          0.845          0.155          0.155

FRACTIONS OF IN-EFFICIENT LOSSES TO SW-RUNOFF FROM 
     PRECIPITATION:  IRRIGATION:
    2          0.400          0.300
    3          0.600          0.500
 
 SOLVING FOR HEAD 
                                                   Max.-Head-Change                        Max.-Flux-Residual
  Residual-Control   Outer-Iter.   Inner-Iter.     Column Row Layer    Max.-Head-Change    Column Row Layer    Max.-Flux-Residual            L2-New               L2-Old           Solver-Max-Delh
          0                 1           9             9    4     1       0.3915011042E+00       1    1    1       0.2181788470E+03      0.5997047467E+03      0.6784824820E-01      0.3915011042E+00
          0                 2           8             9    4     1      -0.3420102923E-01       1    1    1      -0.2184971873E+02      0.6006012134E+02      0.5997047467E+03     -0.3420102923E-01
          0                 3           6             9    4     1      -0.1697369184E-02       1    1    1      -0.1080784806E+01      0.2978380962E+01      0.6006012134E+02     -0.1697369184E-02
          0                 4           4             9    4     1      -0.8504158995E-04       1    1    1      -0.5776861252E-01      0.1519182047E+00      0.2978380962E+01     -0.8504158995E-04

    ------------------------------------------------
       NWT REQUIRED            4 OUTER ITERATIONS 
       AND A TOTAL OF         27 INNER ITERATIONS.
    ------------------------------------------------
                                                   Max.-Head-Change                        Max.-Flux-Residual
  Residual-Control   Outer-Iter.   Inner-Iter.     Column Row Layer    Max.-Head-Change    Column Row Layer    Max.-Flux-Residual            L2-New               L2-Old           Solver-Max-Delh
          0                 1           8             1    1     1       0.1292835102E+00       1    1    1       0.1095077241E+03      0.2824665145E+03      0.1519182047E+00      0.1292835102E+00
          0                 2           7             1    1     1      -0.1120135137E-01       1    1    1      -0.1099310756E+02      0.2836534205E+02      0.2824665145E+03     -0.1120135137E-01
          0                 3           5             1    1     1      -0.5593810585E-03       1    1    1      -0.5492351718E+00      0.1416393650E+01      0.2836534205E+02     -0.5593810585E-03
          0                 4           3             1    3     1      -0.2869212409E-04       1    9    1      -0.3047795326E-01      0.7411561861E-01      0.1416393650E+01     -0.2869212409E-04

    ------------------------------------------------
       NWT REQUIRED            4 OUTER ITERATIONS 
       AND A TOTAL OF         23 INNER ITERATIONS.
    ------------------------------------------------
                                                   Max.-Head-Change                        Max.-Flux-Residual
  Residual-Control   Outer-Iter.   Inner-Iter.     Column Row Layer    Max.-Head-Change    Column Row Layer    Max.-Flux-Residual            L2-New               L2-Old           Solver-Max-Delh
          0                 1           8             1    1     1       0.6335072750E-01       1    1    1       0.5365332475E+02      0.1417611901E+03      0.7411561861E-01      0.6335072750E-01
          0                 2           7             1    1     1      -0.5489540886E-02       1    1    1      -0.5383442556E+01      0.1422179245E+02      0.1417611901E+03     -0.5489540886E-02
          0                 3           5             1    1     2      -0.2721917228E-03       1    1    1      -0.2632938548E+00      0.7073461692E+00      0.1422179245E+02     -0.2721917228E-03
          0                 4           3             1    9     1      -0.1750254939E-04       1    9    1      -0.2177990245E-01      0.3837641252E-01      0.7073461692E+00     -0.1750254939E-04

    ------------------------------------------------
       NWT REQUIRED            4 OUTER ITERATIONS 
       AND A TOTAL OF         23 INNER ITERATIONS.
    ------------------------------------------------
                                                   Max.-Head-Change                        Max.-Flux-Residual
  Residual-Control   Outer-Iter.   Inner-Iter.     Column Row Layer    Max.-Head-Change    Column Row Layer    Max.-Flux-Residual            L2-New               L2-Old           Solver-Max-Delh
          0                 1           8             1    1     1       0.2725746898E-01       1    1    1       0.2322539638E+02      0.6099149384E+02      0.3837641252E-01      0.2725746898E-01
          0                 2           6             1    1     1      -0.2359485917E-02       1    1    1      -0.2324583565E+01      0.6106477505E+01      0.6099149384E+02     -0.2359485917E-02
          0                 3           4             1    1     1      -0.1196029893E-03       1    1    1      -0.1226832293E+00      0.3061929129E+00      0.6106477505E+01     -0.1196029893E-03
          0                 4           2             3    1     1      -0.8949815577E-05       5    1    1      -0.7998698740E-02      0.2330998283E-01      0.3061929129E+00     -0.8949815577E-05

    ------------------------------------------------
       NWT REQUIRED            4 OUTER ITERATIONS 
       AND A TOTAL OF         20 INNER ITERATIONS.
    ------------------------------------------------
                                                   Max.-Head-Change                        Max.-Flux-Residual
  Residual-Control   Outer-Iter.   Inner-Iter.     Column Row Layer    Max.-Head-Change    Column Row Layer    Max.-Flux-Residual            L2-New               L2-Old           Solver-Max-Delh
          0                 1           7             1    1     2       0.9928269521E-02       1    9    1       0.8567276513E+01      0.2170702260E+02      0.2330998283E-01      0.9928269521E-02
          0                 2           5             1    1     2      -0.8569251921E-03       1    9    1      -0.8584439767E+00      0.2168429963E+01      0.2170702260E+02     -0.8569251921E-03
          0                 3           4             1    1     1      -0.4560265241E-04       1    1    1      -0.4873405630E-01      0.1082927978E+00      0.2168429963E+01     -0.4560265241E-04

    ------------------------------------------------
       NWT REQUIRED            3 OUTER ITERATIONS 
       AND A TOTAL OF         16 INNER ITERATIONS.
    ------------------------------------------------
                                                   Max.-Head-Change                        Max.-Flux-Residual
  Residual-Control   Outer-Iter.   Inner-Iter.     Column Row Layer    Max.-Head-Change    Column Row Layer    Max.-Flux-Residual            L2-New               L2-Old           Solver-Max-Delh
          0                 1           6             1    9     2       0.3046690944E-02       1    9    1       0.2725279664E+01      0.5934525866E+01      0.1082927978E+00      0.3046690944E-02
          0                 2           4             1    9     2      -0.2621046389E-03       1    9    1      -0.2719675319E+00      0.5854527705E+00      0.5934525866E+01     -0.2621046389E-03
          0                 3           3             2    9     1      -0.1524314695E-04       2    9    1      -0.1603597071E-01      0.3652605490E-01      0.5854527705E+00     -0.1524314695E-04

    ------------------------------------------------
       NWT REQUIRED            3 OUTER ITERATIONS 
       AND A TOTAL OF         13 INNER ITERATIONS.
    ------------------------------------------------
                                                   Max.-Head-Change                        Max.-Flux-Residual
  Residual-Control   Outer-Iter.   Inner-Iter.     Column Row Layer    Max.-Head-Change    Column Row Layer    Max.-Flux-Residual            L2-New               L2-Old           Solver-Max-Delh
          0                 1           5             9    9     1      -0.1425144845E-02       8    9    1      -0.9418286692E+00      0.2194653295E+01      0.3652605490E-01     -0.1425144845E-02
          0                 2           4             9    9     1       0.1239692959E-03       8    9    1       0.9828483203E-01      0.2244901862E+00      0.2194653295E+01      0.1239692959E-03
          0                 3           2             9    9     1       0.5865126468E-05       2    9    1      -0.9148581652E-02      0.1877550597E-01      0.2244901862E+00      0.5865126468E-05

    ------------------------------------------------
       NWT REQUIRED            3 OUTER ITERATIONS 
       AND A TOTAL OF         11 INNER ITERATIONS.
    ------------------------------------------------
                                                   Max.-Head-Change                        Max.-Flux-Residual
  Residual-Control   Outer-Iter.   Inner-Iter.     Column Row Layer    Max.-Head-Change    Column Row Layer    Max.-Flux-Residual            L2-New               L2-Old           Solver-Max-Delh
          0                 1           5             9    1     2      -0.1038032862E-02       9    9    1      -0.5639700545E+00      0.1914729962E+01      0.1877550597E-01     -0.1038032862E-02
          0                 2           4             9    1     1       0.8992528883E-04       9    9    1       0.6287942520E-01      0.1942766215E+00      0.1914729962E+01      0.8992528883E-04

    ------------------------------------------------
       NWT REQUIRED            2 OUTER ITERATIONS 
       AND A TOTAL OF          9 INNER ITERATIONS.
    ------------------------------------------------
                                                   Max.-Head-Change                        Max.-Flux-Residual
  Residual-Control   Outer-Iter.   Inner-Iter.     Column Row Layer    Max.-Head-Change    Column Row Layer    Max.-Flux-Residual            L2-New               L2-Old           Solver-Max-Delh
          0                 1           5             8    1     1      -0.6631341889E-03       1    1    1      -0.4766609372E+00      0.1371400141E+01      0.1942766215E+00     -0.6631341889E-03
          0                 2           4             6    1     1       0.5732370733E-04       1    1    1       0.4962003382E-01      0.1395458060E+00      0.1371400141E+01      0.5732370733E-04

    ------------------------------------------------
       NWT REQUIRED            2 OUTER ITERATIONS 
       AND A TOTAL OF          9 INNER ITERATIONS.
    ------------------------------------------------
                                                   Max.-Head-Change                        Max.-Flux-Residual
  Residual-Control   Outer-Iter.   Inner-Iter.     Column Row Layer    Max.-Head-Change    Column Row Layer    Max.-Flux-Residual            L2-New               L2-Old           Solver-Max-Delh
          0                 1           5             1    1     1      -0.3900687755E-03       1    1    1      -0.3312484083E+00      0.8362440974E+00      0.1395458060E+00     -0.3900687755E-03
          0                 2           3             1    1     1       0.3183513270E-04       1    9    1       0.3505519050E-01      0.8386170568E-01      0.8362440974E+00      0.3183513270E-04

    ------------------------------------------------
       NWT REQUIRED            2 OUTER ITERATIONS 
       AND A TOTAL OF          8 INNER ITERATIONS.
    ------------------------------------------------

 OUTPUT CONTROL FOR STRESS PERIOD     14   TIME STEP     1
    SAVE BUDGET
 UBDSV1 SAVING "         STORAGE" ON UNIT7011 AT TIME STEP    1, STRESS PERIOD  14
 UBDSV2 SAVING "   CONSTANT HEAD" ON UNIT7011 AT TIME STEP    1, STRESS PERIOD  14
 UBDSV1 SAVING "FLOW RIGHT FACE " ON UNIT7011 AT TIME STEP    1, STRESS PERIOD  14
 UBDSV1 SAVING "FLOW FRONT FACE " ON UNIT7011 AT TIME STEP    1, STRESS PERIOD  14
 UBDSV1 SAVING "FLOW LOWER FACE " ON UNIT7011 AT TIME STEP    1, STRESS PERIOD  14
 
 
 
 
 
 
 
 
 UBDSV3 SAVING "FARM  NET  RECH." ON UNIT7011 AT TIME STEP    1, STRESS PERIOD  14
 UBDSV4 SAVING " GHOST-NODE HEAD" ON UNIT7011 AT TIME STEP    1, STRESS PERIOD  14
1
  FLUX ACROSS PARENT-CHILD INTERFACE AT TIME STEP  1 IN STRESS PERIOD   14
  ------------------------------------------------------------------------
 G-N FLUX        PARENT        CHILD         DIFFERENCE      % DIFFERENCE
  RATE IN:      1.3928E+03    1.3939E+03    -1.0809E+00       -0.0776
 RATE OUT:      2.2203E+03    2.2209E+03    -5.9814E-01       -0.0269
 
 SOLVING FOR HEAD 
                                                   Max.-Head-Change                        Max.-Flux-Residual
  Residual-Control   Outer-Iter.   Inner-Iter.     Column Row Layer    Max.-Head-Change    Column Row Layer    Max.-Flux-Residual            L2-New               L2-Old           Solver-Max-Delh
          0                 1           9             9    4     1       0.3217695639E+00       1    1    1       0.2019470957E+03      0.5265030019E+03      0.8386170568E-01      0.3217695639E+00
          0                 2           8             9    4     1      -0.2806781909E-01       1    1    1      -0.2023492618E+02      0.5276775104E+02      0.5265030019E+03     -0.2806781909E-01
          0                 3           6             9    4     1      -0.1391775592E-02       1    1    1      -0.1001561147E+01      0.2617405063E+01      0.5276775104E+02     -0.1391775592E-02
          0                 4           4             9    4     1      -0.6796222745E-04       1    1    1      -0.5116052786E-01      0.1273941487E+00      0.2617405063E+01     -0.6796222745E-04

    ------------------------------------------------
       NWT REQUIRED            4 OUTER ITERATIONS 
       AND A TOTAL OF         27 INNER ITERATIONS.
    ------------------------------------------------
                                                   Max.-Head-Change                        Max.-Flux-Residual
  Residual-Control   Outer-Iter.   Inner-Iter.     Column Row Layer    Max.-Head-Change    Column Row Layer    Max.-Flux-Residual            L2-New               L2-Old           Solver-Max-Delh
          0                 1           8             1    1     2       0.1197362700E+00       1    1    1       0.1006616684E+03      0.2471736326E+03      0.1273941487E+00      0.1197362700E+00
          0                 2           7             1    1     2      -0.1034666295E-01       1    1    1      -0.1009706354E+02      0.2482648806E+02      0.2471736326E+03     -0.1034666295E-01
          0                 3           5             1    1     2      -0.5166442547E-03       1    1    1      -0.5100351032E+00      0.1234948866E+01      0.2482648806E+02     -0.5166442547E-03
          0                 4           3             1    1     2      -0.2579496687E-04       1    9    1      -0.1861869125E-01      0.6419213756E-01      0.1234948866E+01     -0.2579496687E-04

    ------------------------------------------------
       NWT REQUIRED            4 OUTER ITERATIONS 
       AND A TOTAL OF         23 INNER ITERATIONS.
    ------------------------------------------------
                                                   Max.-Head-Change                        Max.-Flux-Residual
  Residual-Control   Outer-Iter.   Inner-Iter.     Column Row Layer    Max.-Head-Change    Column Row Layer    Max.-Flux-Residual            L2-New               L2-Old           Solver-Max-Delh
          0                 1           8             1    1     2       0.5786500843E-01       1    1    1       0.4870468325E+02      0.1235517869E+03      0.6419213756E-01      0.5786500843E-01
          0                 2           7             1    1     2      -0.4999687926E-02       1    1    1      -0.4876775967E+01      0.1239223649E+02      0.1235517869E+03     -0.4999687926E-02
          0                 3           5             1    1     2      -0.2498311076E-03       1    1    1      -0.2424587716E+00      0.6225945132E+00      0.1239223649E+02     -0.2498311076E-03
          0                 4           3             1    1     1      -0.1523571980E-04       1    1    1      -0.1654946501E-01      0.3401221025E-01      0.6225945132E+00     -0.1523571980E-04

    ------------------------------------------------
       NWT REQUIRED            4 OUTER ITERATIONS 
       AND A TOTAL OF         23 INNER ITERATIONS.
    ------------------------------------------------
                                                   Max.-Head-Change                        Max.-Flux-Residual
  Residual-Control   Outer-Iter.   Inner-Iter.     Column Row Layer    Max.-Head-Change    Column Row Layer    Max.-Flux-Residual            L2-New               L2-Old           Solver-Max-Delh
          0                 1           8             1    1     2       0.2460283009E-01       1    1    1       0.2074140132E+02      0.5325381158E+02      0.3401221025E-01      0.2460283009E-01
          0                 2           6             1    1     2      -0.2125403048E-02       1    1    1      -0.2072315507E+01      0.5333958390E+01      0.5325381158E+02     -0.2125403048E-02
          0                 3           4             1    1     2      -0.1056190860E-03       1    1    1      -0.9810988663E-01      0.2612338040E+00      0.5333958390E+01     -0.1056190860E-03
          0                 4           2             1    1     1      -0.1110655359E-04       1    1    1      -0.1289084519E-01      0.2428588893E-01      0.2612338040E+00     -0.1110655359E-04

    ------------------------------------------------
       NWT REQUIRED            4 OUTER ITERATIONS 
       AND A TOTAL OF         20 INNER ITERATIONS.
    ------------------------------------------------
                                                   Max.-Head-Change                        Max.-Flux-Residual
  Residual-Control   Outer-Iter.   Inner-Iter.     Column Row Layer    Max.-Head-Change    Column Row Layer    Max.-Flux-Residual            L2-New               L2-Old           Solver-Max-Delh
          0                 1           7             1    9     2       0.9003757903E-02       1    9    1       0.7671223380E+01      0.1907656796E+02      0.2428588893E-01      0.9003757903E-02
          0                 2           5             1    9     2      -0.7770221928E-03       1    9    1      -0.7644039072E+00      0.1909308443E+01      0.1907656796E+02     -0.7770221928E-03
          0                 3           3             1    9     2      -0.3910709770E-04       1    1    1      -0.3502995009E-01      0.9342172626E-01      0.1909308443E+01     -0.3910709770E-04

    ------------------------------------------------
       NWT REQUIRED            3 OUTER ITERATIONS 
       AND A TOTAL OF         15 INNER ITERATIONS.
    ------------------------------------------------
                                                   Max.-Head-Change                        Max.-Flux-Residual
  Residual-Control   Outer-Iter.   Inner-Iter.     Column Row Layer    Max.-Head-Change    Column Row Layer    Max.-Flux-Residual            L2-New               L2-Old           Solver-Max-Delh
          0                 1           6             1    9     2       0.2824260437E-02       1    9    1       0.2540508814E+01      0.5234242995E+01      0.9342172626E-01      0.2824260437E-02
          0                 2           4             1    9     2      -0.2438010039E-03       1    9    1      -0.2570011629E+00      0.5309455332E+00      0.5234242995E+01     -0.2438010039E-03
          0                 3           3             1    9     2      -0.1211127702E-04       1    9    1      -0.9840522427E-02      0.2686556318E-01      0.5309455332E+00     -0.1211127702E-04

    ------------------------------------------------
       NWT REQUIRED            3 OUTER ITERATIONS 
       AND A TOTAL OF         13 INNER ITERATIONS.
    ------------------------------------------------
                                                   Max.-Head-Change                        Max.-Flux-Residual
  Residual-Control   Outer-Iter.   Inner-Iter.     Column Row Layer    Max.-Head-Change    Column Row Layer    Max.-Flux-Residual            L2-New               L2-Old           Solver-Max-Delh
          0                 1           5             9    9     2      -0.1190652794E-02       7    9    1      -0.7069532088E+00      0.1895644716E+01      0.2686556318E-01     -0.1190652794E-02
          0                 2           4             9    9     2       0.1021046694E-03       9    9    1       0.7095711677E-01      0.1918138979E+00      0.1895644716E+01      0.1021046694E-03
          0                 3           2             9    1     1       0.1037694751E-04       9    9    1       0.9466713018E-02      0.2104859142E-01      0.1918138979E+00      0.1037694751E-04

    ------------------------------------------------
       NWT REQUIRED            3 OUTER ITERATIONS 
       AND A TOTAL OF         11 INNER ITERATIONS.
    ------------------------------------------------
                                                   Max.-Head-Change                        Max.-Flux-Residual
  Residual-Control   Outer-Iter.   Inner-Iter.     Column Row Layer    Max.-Head-Change    Column Row Layer    Max.-Flux-Residual            L2-New               L2-Old           Solver-Max-Delh
          0                 1           5             9    1     2      -0.9421967001E-03       1    1    1      -0.5311671416E+00      0.1703551777E+01      0.2104859142E-01     -0.9421967001E-03
          0                 2           4             9    1     2       0.8133380352E-04       1    1    1       0.5859637179E-01      0.1757530223E+00      0.1703551777E+01      0.8133380352E-04

    ------------------------------------------------
       NWT REQUIRED            2 OUTER ITERATIONS 
       AND A TOTAL OF          9 INNER ITERATIONS.
    ------------------------------------------------
                                                   Max.-Head-Change                        Max.-Flux-Residual
  Residual-Control   Outer-Iter.   Inner-Iter.     Column Row Layer    Max.-Head-Change    Column Row Layer    Max.-Flux-Residual            L2-New               L2-Old           Solver-Max-Delh
          0                 1           5             5    1     2      -0.5884781457E-03       1    1    1      -0.4619578649E+00      0.1217758213E+01      0.1757530223E+00     -0.5884781457E-03
          0                 2           4             5    1     1       0.5360106759E-04       1    1    1       0.4309480276E-01      0.1239817897E+00      0.1217758213E+01      0.5360106759E-04

    ------------------------------------------------
       NWT REQUIRED            2 OUTER ITERATIONS 
       AND A TOTAL OF          9 INNER ITERATIONS.
    ------------------------------------------------
                                                   Max.-Head-Change                        Max.-Flux-Residual
  Residual-Control   Outer-Iter.   Inner-Iter.     Column Row Layer    Max.-Head-Change    Column Row Layer    Max.-Flux-Residual            L2-New               L2-Old           Solver-Max-Delh
          0                 1           5             1    1     1      -0.3493072102E-03       1    1    1      -0.2947393346E+00      0.7324074252E+00      0.1239817897E+00     -0.3493072102E-03
          0                 2           3             6    1     1       0.3191880942E-04       1    9    1       0.2670574404E-01      0.7713157747E-01      0.7324074252E+00      0.3191880942E-04

    ------------------------------------------------
       NWT REQUIRED            2 OUTER ITERATIONS 
       AND A TOTAL OF          8 INNER ITERATIONS.
    ------------------------------------------------

 OUTPUT CONTROL FOR STRESS PERIOD     14   TIME STEP     2
    SAVE BUDGET
 UBDSV1 SAVING "         STORAGE" ON UNIT7011 AT TIME STEP    2, STRESS PERIOD  14
 UBDSV2 SAVING "   CONSTANT HEAD" ON UNIT7011 AT TIME STEP    2, STRESS PERIOD  14
 UBDSV1 SAVING "FLOW RIGHT FACE " ON UNIT7011 AT TIME STEP    2, STRESS PERIOD  14
 UBDSV1 SAVING "FLOW FRONT FACE " ON UNIT7011 AT TIME STEP    2, STRESS PERIOD  14
 UBDSV1 SAVING "FLOW LOWER FACE " ON UNIT7011 AT TIME STEP    2, STRESS PERIOD  14
 
 
 
 
 
 
 
 
 UBDSV3 SAVING "FARM  NET  RECH." ON UNIT7011 AT TIME STEP    2, STRESS PERIOD  14
 UBDSV4 SAVING " GHOST-NODE HEAD" ON UNIT7011 AT TIME STEP    2, STRESS PERIOD  14
1
  VOLUMETRIC BUDGET FOR ENTIRE MODEL AT END OF TIME STEP    2 IN STRESS PERIOD     14
  ------------------------------------------------------------------------------

     CUMULATIVE VOLUMES      L**3       RATES FOR THIS TIME STEP      L**3/T
     ------------------                 ------------------------

           IN:                                      IN:
           ---                                      ---
             STORAGE =       92526.4453               STORAGE =           0.0000
       CONSTANT HEAD =           0.0000         CONSTANT HEAD =           0.0000
          FARM WELLS =           0.0000            FARM WELLS =           0.0000
    FARM  NET  RECH. =     1085464.0000      FARM  NET  RECH. =        2316.5837
     GHOST-NODE HEAD =     4663789.5000       GHOST-NODE HEAD =        1317.7585

            TOTAL IN =     5841780.0000              TOTAL IN =        3634.3423

          OUT:                                     OUT:
          ----                                     ----
             STORAGE =     3807033.2500               STORAGE =        1285.1827
       CONSTANT HEAD =           0.0000         CONSTANT HEAD =           0.0000
          FARM WELLS =     1224669.5000            FARM WELLS =           0.0000
    FARM  NET  RECH. =           0.0000      FARM  NET  RECH. =           0.0000
     GHOST-NODE HEAD =      810074.2500       GHOST-NODE HEAD =        2349.1423

           TOTAL OUT =     5841777.0000             TOTAL OUT =        3634.3252

            IN - OUT =           3.0000              IN - OUT =       1.7090E-02

 PERCENT DISCREPANCY =           0.00     PERCENT DISCREPANCY =           0.00






          TIME SUMMARY AT END OF TIME STEP     2 IN STRESS PERIOD     14
                    SECONDS     MINUTES      HOURS       DAYS        YEARS
                    -----------------------------------------------------------
   TIME STEP LENGTH 1.31414E+06  21902.      365.04      15.210     4.16427E-02
 STRESS PERIOD TIME 2.62829E+06  43805.      730.08      30.420     8.32854E-02
         TOTAL TIME 3.67960E+07 6.13267E+05  10221.      425.88      1.1660    
1
1
  FLUX ACROSS PARENT-CHILD INTERFACE AT TIME STEP  2 IN STRESS PERIOD   14
  ------------------------------------------------------------------------
 G-N FLUX        PARENT        CHILD         DIFFERENCE      % DIFFERENCE
  RATE IN:      1.3168E+03    1.3178E+03    -9.6887E-01       -0.0736
 RATE OUT:      2.3486E+03    2.3491E+03    -5.7227E-01       -0.0244
1
                            STRESS PERIOD NO.     15, LENGTH =   30.42000    
                            -----------------------------------------------

                              NUMBER OF TIME STEPS =     2

                               MULTIPLIER FOR DELT =     1.000

                            INITIAL TIME STEP SIZE =   15.21000    

 Parameter:  WELLS1
 WELL NO. LAYER    ROW    COL  F-WELL ID    FARM ID         QMAX         QMAXRESET       LGRGRID         
 --------------------------------------------------------------------------------------------------------
       1      1      8      2          2          1      5.0000E+03              0              0
       2      1      8      8          3          1      5.0000E+03              0              0

 NUMBER OF ACTIVE FARM WELLS:        2

 FARM-ID  NUMBER OF WELLS PER FARM  TOTAL MAX.CAPACITY PER FARM
       1                         2                   10000.0000
       2                         0                       0.0000
       3                         0                       0.0000
       4                         0                       0.0000
       5                         0                       0.0000
       6                         0                       0.0000
       7                         0                       0.0000
       8                         0                       0.0000

Transpiratory and Evaporative Fractions of Crop Consumptive Use
    % Transpiration % Evap. for Precip. % Evap. for Irrig.
    2          0.860          0.140          0.140
    3          0.000          1.000          1.000

FRACTIONS OF IN-EFFICIENT LOSSES TO SW-RUNOFF FROM 
     PRECIPITATION:  IRRIGATION:
    2          0.400          0.300
    3          0.600          0.500
 
 SOLVING FOR HEAD 
                                                   Max.-Head-Change                        Max.-Flux-Residual
  Residual-Control   Outer-Iter.   Inner-Iter.     Column Row Layer    Max.-Head-Change    Column Row Layer    Max.-Flux-Residual            L2-New               L2-Old           Solver-Max-Delh
          0                 1           8             5    3     4       0.2201238632E+00       1    9    1      -0.5639580916E+02      0.1808165811E+03      0.7713157747E-01      0.2201238632E+00
          0                 2           7             5    3     4      -0.1900976394E-01       1    9    1       0.5618408709E+01      0.1807816754E+02      0.1808165811E+03     -0.1900976394E-01
          0                 3           5             5    3     4      -0.9468972026E-03       1    9    1       0.2818533038E+00      0.9003610778E+00      0.1807816754E+02     -0.9468972026E-03
          0                 4           3             5    3     4      -0.4862839590E-04       1    9    1       0.1692225615E-01      0.4880838675E-01      0.9003610778E+00     -0.4862839590E-04

    ------------------------------------------------
       NWT REQUIRED            4 OUTER ITERATIONS 
       AND A TOTAL OF         23 INNER ITERATIONS.
    ------------------------------------------------
                                                   Max.-Head-Change                        Max.-Flux-Residual
  Residual-Control   Outer-Iter.   Inner-Iter.     Column Row Layer    Max.-Head-Change    Column Row Layer    Max.-Flux-Residual            L2-New               L2-Old           Solver-Max-Delh
          0                 1           8             1    1     4       0.6731020116E-01       1    9    1      -0.2664478395E+02      0.5809803934E+02      0.4880838675E-01      0.6731020116E-01
          0                 2           7             1    1     4      -0.5812968082E-02       1    9    1       0.2651791747E+01      0.5811436270E+01      0.5809803934E+02     -0.5812968082E-02
          0                 3           4             1    1     4      -0.2896225855E-03       1    9    1       0.1362105043E+00      0.2913593417E+00      0.5811436270E+01     -0.2896225855E-03
          0                 4           2             1    1     4      -0.1475189595E-04       7    1    1      -0.9265674045E-02      0.2022727435E-01      0.2913593417E+00     -0.1475189595E-04

    ------------------------------------------------
       NWT REQUIRED            4 OUTER ITERATIONS 
       AND A TOTAL OF         21 INNER ITERATIONS.
    ------------------------------------------------
                                                   Max.-Head-Change                        Max.-Flux-Residual
  Residual-Control   Outer-Iter.   Inner-Iter.     Column Row Layer    Max.-Head-Change    Column Row Layer    Max.-Flux-Residual            L2-New               L2-Old           Solver-Max-Delh
          0                 1           7             1    1     4       0.3071494249E-01       1    9    1      -0.1382457049E+02      0.2540733652E+02      0.2022727435E-01      0.3071494249E-01
          0                 2           6             1    1     4      -0.2651635583E-02       1    9    1       0.1380003345E+01      0.2531197098E+01      0.2540733652E+02     -0.2651635583E-02
          0                 3           4             1    1     4      -0.1328174832E-03       1    9    1       0.6111799565E-01      0.1274019134E+00      0.2531197098E+01     -0.1328174832E-03
          0                 4           2             1    1     4      -0.6542265480E-05       8    1    1      -0.7872798364E-02      0.1627682248E-01      0.1274019134E+00     -0.6542265480E-05

    ------------------------------------------------
       NWT REQUIRED            4 OUTER ITERATIONS 
       AND A TOTAL OF         19 INNER ITERATIONS.
    ------------------------------------------------
                                                   Max.-Head-Change                        Max.-Flux-Residual
  Residual-Control   Outer-Iter.   Inner-Iter.     Column Row Layer    Max.-Head-Change    Column Row Layer    Max.-Flux-Residual            L2-New               L2-Old           Solver-Max-Delh
          0                 1           6             1    1     4       0.1227739702E-01       1    9    1      -0.6315324283E+01      0.1342171222E+02      0.1627682248E-01      0.1227739702E-01
          0                 2           5             1    1     4      -0.1059352064E-02       1    9    1       0.6259243396E+00      0.1344406187E+01      0.1342171222E+02     -0.1059352064E-02
          0                 3           3             1    1     4      -0.5295616402E-04       1    9    1       0.3126700921E-01      0.6809254660E-01      0.1344406187E+01     -0.5295616402E-04

    ------------------------------------------------
       NWT REQUIRED            3 OUTER ITERATIONS 
       AND A TOTAL OF         14 INNER ITERATIONS.
    ------------------------------------------------
                                                   Max.-Head-Change                        Max.-Flux-Residual
  Residual-Control   Outer-Iter.   Inner-Iter.     Column Row Layer    Max.-Head-Change    Column Row Layer    Max.-Flux-Residual            L2-New               L2-Old           Solver-Max-Delh
          0                 1           6             1    9     4       0.4266340993E-02       1    1    1      -0.3229823897E+01      0.8066142973E+01      0.6809254660E-01      0.4266340993E-02
          0                 2           5             1    9     4      -0.3701690840E-03       1    1    1       0.3242602122E+00      0.8043753447E+00      0.8066142973E+01     -0.3701690840E-03
          0                 3           3             4    1     1       0.1917865724E-04       1    9    1       0.1725867484E-01      0.4725146064E-01      0.8043753447E+00      0.1917865724E-04

    ------------------------------------------------
       NWT REQUIRED            3 OUTER ITERATIONS 
       AND A TOTAL OF         14 INNER ITERATIONS.
    ------------------------------------------------
                                                   Max.-Head-Change                        Max.-Flux-Residual
  Residual-Control   Outer-Iter.   Inner-Iter.     Column Row Layer    Max.-Head-Change    Column Row Layer    Max.-Flux-Residual            L2-New               L2-Old           Solver-Max-Delh
          0                 1           6             3    1     1      -0.2408760350E-02       1    1    1      -0.2022993036E+01      0.4513083423E+01      0.4725146064E-01     -0.2408760350E-02
          0                 2           4             3    1     1       0.2080900186E-03       1    1    1       0.2024810343E+00      0.4552533614E+00      0.4513083423E+01      0.2080900186E-03
          0                 3           3             2    1     1       0.1107312053E-04       1    1    1       0.1039543760E-01      0.2551542603E-01      0.4552533614E+00      0.1107312053E-04

    ------------------------------------------------
       NWT REQUIRED            3 OUTER ITERATIONS 
       AND A TOTAL OF         13 INNER ITERATIONS.
    ------------------------------------------------
                                                   Max.-Head-Change                        Max.-Flux-Residual
  Residual-Control   Outer-Iter.   Inner-Iter.     Column Row Layer    Max.-Head-Change    Column Row Layer    Max.-Flux-Residual            L2-New               L2-Old           Solver-Max-Delh
          0                 1           5             2    1     1      -0.1255611704E-02       1    1    1      -0.1092305725E+01      0.2258279557E+01      0.2551542603E-01     -0.1255611704E-02
          0                 2           4             2    1     1       0.1112785826E-03       1    1    1       0.1116119873E+00      0.2327268866E+00      0.2258279557E+01      0.1112785826E-03
          0                 3           2             1    1     1       0.8530569089E-05       1    1    1       0.1164448808E-01      0.2000568956E-01      0.2327268866E+00      0.8530569089E-05

    ------------------------------------------------
       NWT REQUIRED            3 OUTER ITERATIONS 
       AND A TOTAL OF         11 INNER ITERATIONS.
    ------------------------------------------------
                                                   Max.-Head-Change                        Max.-Flux-Residual
  Residual-Control   Outer-Iter.   Inner-Iter.     Column Row Layer    Max.-Head-Change    Column Row Layer    Max.-Flux-Residual            L2-New               L2-Old           Solver-Max-Delh
          0                 1           5             6    1     3      -0.6694072277E-03       1    1    1      -0.4919655144E+00      0.9936383239E+00      0.2000568956E-01     -0.6694072277E-03
          0                 2           4             6    1     3       0.5650668382E-04       1    1    1       0.4609730537E-01      0.1038372817E+00      0.9936383239E+00      0.5650668382E-04

    ------------------------------------------------
       NWT REQUIRED            2 OUTER ITERATIONS 
       AND A TOTAL OF          9 INNER ITERATIONS.
    ------------------------------------------------
                                                   Max.-Head-Change                        Max.-Flux-Residual
  Residual-Control   Outer-Iter.   Inner-Iter.     Column Row Layer    Max.-Head-Change    Column Row Layer    Max.-Flux-Residual            L2-New               L2-Old           Solver-Max-Delh
          0                 1           4             1    3     3      -0.3853800515E-03       1    1    1      -0.2097371254E+00      0.3953167921E+00      0.1038372817E+00     -0.3853800515E-03
          0                 2           3             1    3     3       0.3297682463E-04       1    1    1       0.2255520667E-01      0.4194317136E-01      0.3953167921E+00      0.3297682463E-04

    ------------------------------------------------
       NWT REQUIRED            2 OUTER ITERATIONS 
       AND A TOTAL OF          7 INNER ITERATIONS.
    ------------------------------------------------

 OUTPUT CONTROL FOR STRESS PERIOD     15   TIME STEP     1
    SAVE BUDGET
 UBDSV1 SAVING "         STORAGE" ON UNIT7011 AT TIME STEP    1, STRESS PERIOD  15
 UBDSV2 SAVING "   CONSTANT HEAD" ON UNIT7011 AT TIME STEP    1, STRESS PERIOD  15
 UBDSV1 SAVING "FLOW RIGHT FACE " ON UNIT7011 AT TIME STEP    1, STRESS PERIOD  15
 UBDSV1 SAVING "FLOW FRONT FACE " ON UNIT7011 AT TIME STEP    1, STRESS PERIOD  15
 UBDSV1 SAVING "FLOW LOWER FACE " ON UNIT7011 AT TIME STEP    1, STRESS PERIOD  15
 
 
 
 
 
 
 
 
 UBDSV3 SAVING "FARM  NET  RECH." ON UNIT7011 AT TIME STEP    1, STRESS PERIOD  15
 UBDSV4 SAVING " GHOST-NODE HEAD" ON UNIT7011 AT TIME STEP    1, STRESS PERIOD  15
1
  FLUX ACROSS PARENT-CHILD INTERFACE AT TIME STEP  1 IN STRESS PERIOD   15
  ------------------------------------------------------------------------
 G-N FLUX        PARENT        CHILD         DIFFERENCE      % DIFFERENCE
  RATE IN:      1.3863E+03    1.3861E+03     1.9080E-01        0.0138
 RATE OUT:      2.1652E+03    2.1661E+03    -8.6670E-01       -0.0400
 
 SOLVING FOR HEAD 
                                                   Max.-Head-Change                        Max.-Flux-Residual
  Residual-Control   Outer-Iter.   Inner-Iter.     Column Row Layer    Max.-Head-Change    Column Row Layer    Max.-Flux-Residual            L2-New               L2-Old           Solver-Max-Delh
          0                 1           8             5    3     4       0.1530621817E+00       1    1    1       0.3924031543E+02      0.9373822150E+02      0.4194317136E-01      0.1530621817E+00
          0                 2           7             5    3     4      -0.1321942282E-01       1    1    1      -0.3932311426E+01      0.9433035687E+01      0.9373822150E+02     -0.1321942282E-01
          0                 3           5             5    3     4      -0.6621385222E-03       1    1    1      -0.2004911726E+00      0.4719550911E+00      0.9433035687E+01     -0.6621385222E-03
          0                 4           2             2    1     4      -0.2920147233E-04       3    1    1      -0.8224011515E-02      0.2459759074E-01      0.4719550911E+00     -0.2920147233E-04

    ------------------------------------------------
       NWT REQUIRED            4 OUTER ITERATIONS 
       AND A TOTAL OF         22 INNER ITERATIONS.
    ------------------------------------------------
                                                   Max.-Head-Change                        Max.-Flux-Residual
  Residual-Control   Outer-Iter.   Inner-Iter.     Column Row Layer    Max.-Head-Change    Column Row Layer    Max.-Flux-Residual            L2-New               L2-Old           Solver-Max-Delh
          0                 1           7             1    1     4       0.4868211375E-01       1    1    1       0.1590886967E+02      0.3670675527E+02      0.2459759074E-01      0.4868211375E-01
          0                 2           5             1    1     4      -0.4205366541E-02       1    1    1      -0.1585610473E+01      0.3690537208E+01      0.3670675527E+02     -0.4205366541E-02
          0                 3           4             1    1     4      -0.2100109676E-03       1    1    1      -0.7721623930E-01      0.1817657704E+00      0.3690537208E+01     -0.2100109676E-03
          0                 4           2             1    1     4      -0.1028399400E-04       8    1    1      -0.7717432221E-02      0.1947824722E-01      0.1817657704E+00     -0.1028399400E-04

    ------------------------------------------------
       NWT REQUIRED            4 OUTER ITERATIONS 
       AND A TOTAL OF         18 INNER ITERATIONS.
    ------------------------------------------------
                                                   Max.-Head-Change                        Max.-Flux-Residual
  Residual-Control   Outer-Iter.   Inner-Iter.     Column Row Layer    Max.-Head-Change    Column Row Layer    Max.-Flux-Residual            L2-New               L2-Old           Solver-Max-Delh
          0                 1           7             1    1     4       0.2218046717E-01       1    1    1       0.4962385837E+01      0.1119699092E+02      0.1947824722E-01      0.2218046717E-01
          0                 2           5             1    1     4      -0.1916696691E-02       1    1    1      -0.4950760108E+00      0.1123232240E+01      0.1119699092E+02     -0.1916696691E-02
          0                 3           3             1    1     4      -0.9462522271E-04       1    1    1      -0.2756120509E-01      0.6070745020E-01      0.1123232240E+01     -0.9462522271E-04

    ------------------------------------------------
       NWT REQUIRED            3 OUTER ITERATIONS 
       AND A TOTAL OF         15 INNER ITERATIONS.
    ------------------------------------------------
                                                   Max.-Head-Change                        Max.-Flux-Residual
  Residual-Control   Outer-Iter.   Inner-Iter.     Column Row Layer    Max.-Head-Change    Column Row Layer    Max.-Flux-Residual            L2-New               L2-Old           Solver-Max-Delh
          0                 1           6             1    1     4       0.8874783798E-02       1    9    1      -0.1052063355E+01      0.2784140885E+01      0.6070745020E-01      0.8874783798E-02
          0                 2           4             1    1     4      -0.7664013004E-03       1    9    1       0.9937375877E-01      0.2804296104E+00      0.2784140885E+01     -0.7664013004E-03
          0                 3           2             1    1     4      -0.3653286005E-04       1    4    1       0.8365230751E-02      0.2315022857E-01      0.2804296104E+00     -0.3653286005E-04

    ------------------------------------------------
       NWT REQUIRED            3 OUTER ITERATIONS 
       AND A TOTAL OF         12 INNER ITERATIONS.
    ------------------------------------------------
                                                   Max.-Head-Change                        Max.-Flux-Residual
  Residual-Control   Outer-Iter.   Inner-Iter.     Column Row Layer    Max.-Head-Change    Column Row Layer    Max.-Flux-Residual            L2-New               L2-Old           Solver-Max-Delh
          0                 1           5             1    9     4       0.2977626504E-02       5    1    1      -0.8756647771E+00      0.2706245590E+01      0.2315022857E-01      0.2977626504E-02
          0                 2           4             1    9     4      -0.2562040262E-03       6    1    1       0.9247269481E-01      0.2763853038E+00      0.2706245590E+01     -0.2562040262E-03
          0                 3           2             1    9     4      -0.1275830509E-04       4    1    1       0.8556722663E-02      0.1777233890E-01      0.2763853038E+00     -0.1275830509E-04

    ------------------------------------------------
       NWT REQUIRED            3 OUTER ITERATIONS 
       AND A TOTAL OF         11 INNER ITERATIONS.
    ------------------------------------------------
                                                   Max.-Head-Change                        Max.-Flux-Residual
  Residual-Control   Outer-Iter.   Inner-Iter.     Column Row Layer    Max.-Head-Change    Column Row Layer    Max.-Flux-Residual            L2-New               L2-Old           Solver-Max-Delh
          0                 1           5             7    1     2      -0.1284792379E-02       1    1    1      -0.7263881301E+00      0.2141479474E+01      0.1777233890E-01     -0.1284792379E-02
          0                 2           4             7    1     2       0.1106149284E-03       1    1    1       0.7590507297E-01      0.2177281860E+00      0.2141479474E+01      0.1106149284E-03
          0                 3           2             7    1     1       0.7090213002E-05       7    1    1       0.8141775033E-02      0.1635282078E-01      0.2177281860E+00      0.7090213002E-05

    ------------------------------------------------
       NWT REQUIRED            3 OUTER ITERATIONS 
       AND A TOTAL OF         11 INNER ITERATIONS.
    ------------------------------------------------
                                                   Max.-Head-Change                        Max.-Flux-Residual
  Residual-Control   Outer-Iter.   Inner-Iter.     Column Row Layer    Max.-Head-Change    Column Row Layer    Max.-Flux-Residual            L2-New               L2-Old           Solver-Max-Delh
          0                 1           5             7    1     2      -0.8028896151E-03       1    1    1      -0.5048248216E+00      0.1274839072E+01      0.1635282078E-01     -0.8028896151E-03
          0                 2           4             7    1     2       0.6945991506E-04       1    1    1       0.4934340215E-01      0.1315706306E+00      0.1274839072E+01      0.6945991506E-04

    ------------------------------------------------
       NWT REQUIRED            2 OUTER ITERATIONS 
       AND A TOTAL OF          9 INNER ITERATIONS.
    ------------------------------------------------
                                                   Max.-Head-Change                        Max.-Flux-Residual
  Residual-Control   Outer-Iter.   Inner-Iter.     Column Row Layer    Max.-Head-Change    Column Row Layer    Max.-Flux-Residual            L2-New               L2-Old           Solver-Max-Delh
          0                 1           5             8    1     3      -0.4624708555E-03       1    1    1      -0.2831795537E+00      0.6325234856E+00      0.1315706306E+00     -0.4624708555E-03
          0                 2           3             5    1     3       0.3821162830E-04       1    1    1       0.3654053644E-01      0.7021529238E-01      0.6325234856E+00      0.3821162830E-04

    ------------------------------------------------
       NWT REQUIRED            2 OUTER ITERATIONS 
       AND A TOTAL OF          8 INNER ITERATIONS.
    ------------------------------------------------
                                                   Max.-Head-Change                        Max.-Flux-Residual
  Residual-Control   Outer-Iter.   Inner-Iter.     Column Row Layer    Max.-Head-Change    Column Row Layer    Max.-Flux-Residual            L2-New               L2-Old           Solver-Max-Delh
          0                 1           4             1    2     3      -0.2577950712E-03       1    1    1      -0.1562142893E+00      0.2879831433E+00      0.7021529238E-01     -0.2577950712E-03
          0                 2           3             1    2     3       0.2177555414E-04       1    3    1       0.1387144206E-01      0.3033707661E-01      0.2879831433E+00      0.2177555414E-04

    ------------------------------------------------
       NWT REQUIRED            2 OUTER ITERATIONS 
       AND A TOTAL OF          7 INNER ITERATIONS.
    ------------------------------------------------

 OUTPUT CONTROL FOR STRESS PERIOD     15   TIME STEP     2
    PRINT BUDGET
    SAVE HEAD FOR ALL LAYERS
    SAVE BUDGET
 UBDSV1 SAVING "         STORAGE" ON UNIT7011 AT TIME STEP    2, STRESS PERIOD  15
 UBDSV2 SAVING "   CONSTANT HEAD" ON UNIT7011 AT TIME STEP    2, STRESS PERIOD  15
 UBDSV1 SAVING "FLOW RIGHT FACE " ON UNIT7011 AT TIME STEP    2, STRESS PERIOD  15
 UBDSV1 SAVING "FLOW FRONT FACE " ON UNIT7011 AT TIME STEP    2, STRESS PERIOD  15
 UBDSV1 SAVING "FLOW LOWER FACE " ON UNIT7011 AT TIME STEP    2, STRESS PERIOD  15
 
 
 
 
 
 
 
 
 UBDSV3 SAVING "FARM  NET  RECH." ON UNIT7011 AT TIME STEP    2, STRESS PERIOD  15
 UBDSV4 SAVING " GHOST-NODE HEAD" ON UNIT7011 AT TIME STEP    2, STRESS PERIOD  15

 HEAD WILL BE SAVED ON UNIT 2211 AT END OF TIME STEP     2, STRESS PERIOD     15
1
  VOLUMETRIC BUDGET FOR ENTIRE MODEL AT END OF TIME STEP    2 IN STRESS PERIOD     15
  ------------------------------------------------------------------------------

     CUMULATIVE VOLUMES      L**3       RATES FOR THIS TIME STEP      L**3/T
     ------------------                 ------------------------

           IN:                                      IN:
           ---                                      ---
             STORAGE =       94792.4062               STORAGE =          12.8677
       CONSTANT HEAD =           0.0000         CONSTANT HEAD =           0.0000
          FARM WELLS =           0.0000            FARM WELLS =           0.0000
    FARM  NET  RECH. =     1107493.7500      FARM  NET  RECH. =         724.1855
     GHOST-NODE HEAD =     4706408.0000       GHOST-NODE HEAD =        1415.9133

            TOTAL IN =     5908694.0000              TOTAL IN =        2152.9666

          OUT:                                     OUT:
          ----                                     ----
             STORAGE =     3809644.5000               STORAGE =          91.4049
       CONSTANT HEAD =           0.0000         CONSTANT HEAD =           0.0000
          FARM WELLS =     1224669.5000            FARM WELLS =           0.0000
    FARM  NET  RECH. =           0.0000      FARM  NET  RECH. =           0.0000
     GHOST-NODE HEAD =      874376.6875       GHOST-NODE HEAD =        2061.5432

           TOTAL OUT =     5908690.5000             TOTAL OUT =        2152.9482

            IN - OUT =           3.5000              IN - OUT =       1.8311E-02

 PERCENT DISCREPANCY =           0.00     PERCENT DISCREPANCY =           0.00






          TIME SUMMARY AT END OF TIME STEP     2 IN STRESS PERIOD     15
                    SECONDS     MINUTES      HOURS       DAYS        YEARS
                    -----------------------------------------------------------
   TIME STEP LENGTH 1.31414E+06  21902.      365.04      15.210     4.16427E-02
 STRESS PERIOD TIME 2.62829E+06  43805.      730.08      30.420     8.32854E-02
         TOTAL TIME 3.94243E+07 6.57072E+05  10951.      456.30      1.2493    
1
1
  FLUX ACROSS PARENT-CHILD INTERFACE AT TIME STEP  2 IN STRESS PERIOD   15
  ------------------------------------------------------------------------
 G-N FLUX        PARENT        CHILD         DIFFERENCE      % DIFFERENCE
  RATE IN:      1.4157E+03    1.4159E+03    -1.8335E-01       -0.0130
 RATE OUT:      2.0611E+03    2.0615E+03    -4.4189E-01       -0.0214
1
                            STRESS PERIOD NO.     16, LENGTH =   30.42000    
                            -----------------------------------------------

                              NUMBER OF TIME STEPS =     2

                               MULTIPLIER FOR DELT =     1.000

                            INITIAL TIME STEP SIZE =   15.21000    

 Parameter:  WELLS1
 WELL NO. LAYER    ROW    COL  F-WELL ID    FARM ID         QMAX         QMAXRESET       LGRGRID         
 --------------------------------------------------------------------------------------------------------
       1      1      8      2          2          1      5.0000E+03              0              0
       2      1      8      8          3          1      5.0000E+03              0              0

 NUMBER OF ACTIVE FARM WELLS:        2

 FARM-ID  NUMBER OF WELLS PER FARM  TOTAL MAX.CAPACITY PER FARM
       1                         2                   10000.0000
       2                         0                       0.0000
       3                         0                       0.0000
       4                         0                       0.0000
       5                         0                       0.0000
       6                         0                       0.0000
       7                         0                       0.0000
       8                         0                       0.0000

Transpiratory and Evaporative Fractions of Crop Consumptive Use
    % Transpiration % Evap. for Precip. % Evap. for Irrig.
    2          0.908          0.092          0.092
    3          0.000          1.000          1.000

FRACTIONS OF IN-EFFICIENT LOSSES TO SW-RUNOFF FROM 
     PRECIPITATION:  IRRIGATION:
    2          0.400          0.300
    3          0.600          0.500
 
 SOLVING FOR HEAD 
                                                   Max.-Head-Change                        Max.-Flux-Residual
  Residual-Control   Outer-Iter.   Inner-Iter.     Column Row Layer    Max.-Head-Change    Column Row Layer    Max.-Flux-Residual            L2-New               L2-Old           Solver-Max-Delh
          0                 1           9             8    8     1      -0.1665023332E+01       8    8    1      -0.2129081969E+04      0.3026804645E+04      0.3033707661E-01     -0.1665023332E+01
          0                 2           8             8    8     1       0.1346222223E+00       2    8    1       0.1897662018E+03      0.2698223719E+03      0.3026804645E+04      0.1346222223E+00
          0                 3           6             8    8     1       0.6699509759E-02       2    8    1       0.9370069971E+01      0.1329629449E+02      0.2698223719E+03      0.6699509759E-02
          0                 4           4             8    8     1       0.3365336255E-03       2    8    1       0.4681089860E+00      0.6653831022E+00      0.1329629449E+02      0.3365336255E-03
          0                 5           3             8    8     1       0.1875835951E-04       2    8    1       0.2338198852E-01      0.3779919350E-01      0.6653831022E+00      0.1875835951E-04

    ------------------------------------------------
       NWT REQUIRED            5 OUTER ITERATIONS 
       AND A TOTAL OF         30 INNER ITERATIONS.
    ------------------------------------------------
                                                   Max.-Head-Change                        Max.-Flux-Residual
  Residual-Control   Outer-Iter.   Inner-Iter.     Column Row Layer    Max.-Head-Change    Column Row Layer    Max.-Flux-Residual            L2-New               L2-Old           Solver-Max-Delh
          0                 1           9             8    8     1       0.3863568824E+00       2    8    1       0.6908638689E+03      0.1082272943E+04      0.3779919350E-01      0.3863568824E+00
          0                 2           7             8    8     1      -0.2676240219E-01       8    8    1      -0.6004027082E+02      0.9658973551E+02      0.1082272943E+04     -0.2676240219E-01
          0                 3           5             8    8     1      -0.1344128708E-02       8    8    1      -0.3008396057E+01      0.5087757183E+01      0.9658973551E+02     -0.1344128708E-02
          0                 4           3             8    8     1      -0.6622033560E-04       8    8    1      -0.1504545784E+00      0.2524256972E+00      0.5087757183E+01     -0.6622033560E-04

    ------------------------------------------------
       NWT REQUIRED            4 OUTER ITERATIONS 
       AND A TOTAL OF         24 INNER ITERATIONS.
    ------------------------------------------------
                                                   Max.-Head-Change                        Max.-Flux-Residual
  Residual-Control   Outer-Iter.   Inner-Iter.     Column Row Layer    Max.-Head-Change    Column Row Layer    Max.-Flux-Residual            L2-New               L2-Old           Solver-Max-Delh
          0                 1           8             9    9     1      -0.7754559502E-01       1    1    1      -0.6090396853E+02      0.1622090198E+03      0.2524256972E+00     -0.7754559502E-01
          0                 2           7             9    9     1       0.6664299278E-02       1    1    1       0.6100232288E+01      0.1617678973E+02      0.1622090198E+03      0.6664299278E-02
          0                 3           4             9    9     1       0.3383468521E-03       1    1    1       0.3112813962E+00      0.8119425469E+00      0.1617678973E+02      0.3383468521E-03
          0                 4           3             1    9     1       0.1916308594E-04       1    9    1       0.2159619576E-01      0.4451958616E-01      0.8119425469E+00      0.1916308594E-04

    ------------------------------------------------
       NWT REQUIRED            4 OUTER ITERATIONS 
       AND A TOTAL OF         22 INNER ITERATIONS.
    ------------------------------------------------
                                                   Max.-Head-Change                        Max.-Flux-Residual
  Residual-Control   Outer-Iter.   Inner-Iter.     Column Row Layer    Max.-Head-Change    Column Row Layer    Max.-Flux-Residual            L2-New               L2-Old           Solver-Max-Delh
          0                 1           8             1    9     1      -0.2786241272E-01       1    9    1      -0.2497392724E+02      0.5527784598E+02      0.4451958616E-01     -0.2786241272E-01
          0                 2           6             1    9     1       0.2389030044E-02       1    9    1       0.2486146505E+01      0.5507964978E+01      0.5527784598E+02      0.2389030044E-02
          0                 3           4             1    9     1       0.1190277075E-03       1    9    1       0.1251294718E+00      0.2779092577E+00      0.5507964978E+01      0.1190277075E-03
          0                 4           2             1    7     1       0.7176851247E-05       1    7    1       0.7316154777E-02      0.2045135886E-01      0.2779092577E+00      0.7176851247E-05

    ------------------------------------------------
       NWT REQUIRED            4 OUTER ITERATIONS 
       AND A TOTAL OF         20 INNER ITERATIONS.
    ------------------------------------------------
                                                   Max.-Head-Change                        Max.-Flux-Residual
  Residual-Control   Outer-Iter.   Inner-Iter.     Column Row Layer    Max.-Head-Change    Column Row Layer    Max.-Flux-Residual            L2-New               L2-Old           Solver-Max-Delh
          0                 1           6             1    9     1      -0.1002322950E-01       1    9    1      -0.9756641323E+01      0.1579098599E+02      0.2045135886E-01     -0.1002322950E-01
          0                 2           5             1    9     1       0.8621645940E-03       1    9    1       0.9713122615E+00      0.1574635649E+01      0.1579098599E+02      0.8621645940E-03
          0                 3           3             1    9     1       0.3903099834E-04       1    9    1       0.4373667040E-01      0.7442948825E-01      0.1574635649E+01      0.3903099834E-04

    ------------------------------------------------
       NWT REQUIRED            3 OUTER ITERATIONS 
       AND A TOTAL OF         14 INNER ITERATIONS.
    ------------------------------------------------
                                                   Max.-Head-Change                        Max.-Flux-Residual
  Residual-Control   Outer-Iter.   Inner-Iter.     Column Row Layer    Max.-Head-Change    Column Row Layer    Max.-Flux-Residual            L2-New               L2-Old           Solver-Max-Delh
          0                 1           6             9    9     2       0.5307460387E-02       1    1    1       0.3608588214E+01      0.1034823183E+02      0.7442948825E-01      0.5307460387E-02
          0                 2           5             9    9     2      -0.4577646410E-03       1    1    1      -0.3681671071E+00      0.1041458597E+01      0.1034823183E+02     -0.4577646410E-03
          0                 3           3             9    9     2      -0.2242792675E-04       1    1    1      -0.2055385557E-01      0.5349154369E-01      0.1041458597E+01     -0.2242792675E-04

    ------------------------------------------------
       NWT REQUIRED            3 OUTER ITERATIONS 
       AND A TOTAL OF         14 INNER ITERATIONS.
    ------------------------------------------------
                                                   Max.-Head-Change                        Max.-Flux-Residual
  Residual-Control   Outer-Iter.   Inner-Iter.     Column Row Layer    Max.-Head-Change    Column Row Layer    Max.-Flux-Residual            L2-New               L2-Old           Solver-Max-Delh
          0                 1           6             9    9     1       0.4340243822E-02       1    1    1       0.3433299898E+01      0.7991207796E+01      0.5349154369E-01      0.4340243822E-02
          0                 2           5             9    9     1      -0.3771012695E-03       1    1    1      -0.3474898727E+00      0.8054079855E+00      0.7991207796E+01     -0.3771012695E-03
          0                 3           3             9    9     1      -0.2043595894E-04       7    9    1      -0.1546286821E-01      0.4380403935E-01      0.8054079855E+00     -0.2043595894E-04

    ------------------------------------------------
       NWT REQUIRED            3 OUTER ITERATIONS 
       AND A TOTAL OF         14 INNER ITERATIONS.
    ------------------------------------------------
                                                   Max.-Head-Change                        Max.-Flux-Residual
  Residual-Control   Outer-Iter.   Inner-Iter.     Column Row Layer    Max.-Head-Change    Column Row Layer    Max.-Flux-Residual            L2-New               L2-Old           Solver-Max-Delh
          0                 1           6             1    1     1       0.2578503553E-02       1    1    1       0.2319427770E+01      0.4824237638E+01      0.4380403935E-01      0.2578503553E-02
          0                 2           4             1    1     1      -0.2279533699E-03       1    1    1      -0.2402953893E+00      0.4878571889E+00      0.4824237638E+01     -0.2279533699E-03
          0                 3           3             9    9     1      -0.1155502076E-04       1    1    1      -0.1068016666E-01      0.2846874225E-01      0.4878571889E+00     -0.1155502076E-04

    ------------------------------------------------
       NWT REQUIRED            3 OUTER ITERATIONS 
       AND A TOTAL OF         13 INNER ITERATIONS.
    ------------------------------------------------
                                                   Max.-Head-Change                        Max.-Flux-Residual
  Residual-Control   Outer-Iter.   Inner-Iter.     Column Row Layer    Max.-Head-Change    Column Row Layer    Max.-Flux-Residual            L2-New               L2-Old           Solver-Max-Delh
          0                 1           5             1    1     1       0.1465788696E-02       1    1    1       0.1332579908E+01      0.2524114650E+01      0.2846874225E-01      0.1465788696E-02
          0                 2           4             1    1     1      -0.1233705506E-03       1    1    1      -0.1284576355E+00      0.2519835719E+00      0.2524114650E+01     -0.1233705506E-03
          0                 3           2             1    1     1      -0.9300543478E-05       1    1    1      -0.1262736134E-01      0.2247678589E-01      0.2519835719E+00     -0.9300543478E-05

    ------------------------------------------------
       NWT REQUIRED            3 OUTER ITERATIONS 
       AND A TOTAL OF         11 INNER ITERATIONS.
    ------------------------------------------------
                                                   Max.-Head-Change                        Max.-Flux-Residual
  Residual-Control   Outer-Iter.   Inner-Iter.     Column Row Layer    Max.-Head-Change    Column Row Layer    Max.-Flux-Residual            L2-New               L2-Old           Solver-Max-Delh
          0                 1           5             1    1     1       0.7231948865E-03       1    1    1       0.6597376821E+00      0.1221137961E+01      0.2247678589E-01      0.7231948865E-03
          0                 2           4             1    1     1      -0.6539420155E-04       1    1    1      -0.7250384835E-01      0.1269414015E+00      0.1221137961E+01     -0.6539420155E-04

    ------------------------------------------------
       NWT REQUIRED            2 OUTER ITERATIONS 
       AND A TOTAL OF          9 INNER ITERATIONS.
    ------------------------------------------------
                                                   Max.-Head-Change                        Max.-Flux-Residual
  Residual-Control   Outer-Iter.   Inner-Iter.     Column Row Layer    Max.-Head-Change    Column Row Layer    Max.-Flux-Residual            L2-New               L2-Old           Solver-Max-Delh
          0                 1           5             1    1     1       0.3264148229E-03       1    1    1       0.3029358722E+00      0.5723926383E+00      0.1269414015E+00      0.3264148229E-03
          0                 2           3             1    1     1      -0.2966718769E-04       1    1    1      -0.3307704616E-01      0.5737015577E-01      0.5723926383E+00     -0.2966718769E-04

    ------------------------------------------------
       NWT REQUIRED            2 OUTER ITERATIONS 
       AND A TOTAL OF          8 INNER ITERATIONS.
    ------------------------------------------------

 OUTPUT CONTROL FOR STRESS PERIOD     16   TIME STEP     1
    SAVE BUDGET
 UBDSV1 SAVING "         STORAGE" ON UNIT7011 AT TIME STEP    1, STRESS PERIOD  16
 UBDSV2 SAVING "   CONSTANT HEAD" ON UNIT7011 AT TIME STEP    1, STRESS PERIOD  16
 UBDSV1 SAVING "FLOW RIGHT FACE " ON UNIT7011 AT TIME STEP    1, STRESS PERIOD  16
 UBDSV1 SAVING "FLOW FRONT FACE " ON UNIT7011 AT TIME STEP    1, STRESS PERIOD  16
 UBDSV1 SAVING "FLOW LOWER FACE " ON UNIT7011 AT TIME STEP    1, STRESS PERIOD  16
 
 
 
 
 
 
 
 
 UBDSV3 SAVING "FARM  NET  RECH." ON UNIT7011 AT TIME STEP    1, STRESS PERIOD  16
 UBDSV4 SAVING " GHOST-NODE HEAD" ON UNIT7011 AT TIME STEP    1, STRESS PERIOD  16
1
  FLUX ACROSS PARENT-CHILD INTERFACE AT TIME STEP  1 IN STRESS PERIOD   16
  ------------------------------------------------------------------------
 G-N FLUX        PARENT        CHILD         DIFFERENCE      % DIFFERENCE
  RATE IN:      2.0903E+03    2.0905E+03    -1.7383E-01       -0.0083
 RATE OUT:      2.1222E+03    2.1216E+03     6.1035E-01        0.0288
 
 SOLVING FOR HEAD 
                                                   Max.-Head-Change                        Max.-Flux-Residual
  Residual-Control   Outer-Iter.   Inner-Iter.     Column Row Layer    Max.-Head-Change    Column Row Layer    Max.-Flux-Residual            L2-New               L2-Old           Solver-Max-Delh
          0                 1           9             8    8     1      -0.7205380018E+00       8    8    1      -0.6242729924E+03      0.9743264179E+03      0.5737015577E-01     -0.7205380018E+00
          0                 2           8             8    8     1       0.6046230446E-01       2    8    1       0.5844320421E+02      0.9315882369E+02      0.9743264179E+03      0.6046230446E-01
          0                 3           6             8    8     1       0.3031793702E-02       2    8    1       0.2900455326E+01      0.4644527878E+01      0.9315882369E+02      0.3031793702E-02
          0                 4           4             8    8     1       0.1566223122E-03       2    8    1       0.1450035999E+00      0.2316787622E+00      0.4644527878E+01      0.1566223122E-03
          0                 5           2             1    2     1       0.8080020308E-05       8    8    1       0.7233613229E-02      0.2240336522E-01      0.2316787622E+00      0.8080020308E-05

    ------------------------------------------------
       NWT REQUIRED            5 OUTER ITERATIONS 
       AND A TOTAL OF         29 INNER ITERATIONS.
    ------------------------------------------------
                                                   Max.-Head-Change                        Max.-Flux-Residual
  Residual-Control   Outer-Iter.   Inner-Iter.     Column Row Layer    Max.-Head-Change    Column Row Layer    Max.-Flux-Residual            L2-New               L2-Old           Solver-Max-Delh
          0                 1           8             8    8     1       0.3562370647E+00       2    8    1       0.5773331601E+03      0.8598575881E+03      0.2240336522E-01      0.3562370647E+00
          0                 2           6             8    8     1      -0.3107178770E-01       8    8    1      -0.5896403570E+02      0.8731203803E+02      0.8598575881E+03     -0.3107178770E-01
          0                 3           5             8    8     1      -0.1561244015E-02       8    8    1      -0.2957438696E+01      0.4370871766E+01      0.8731203803E+02     -0.1561244015E-02
          0                 4           3             8    8     1      -0.7727047576E-04       8    8    1      -0.1479460463E+00      0.2196399903E+00      0.4370871766E+01     -0.7727047576E-04

    ------------------------------------------------
       NWT REQUIRED            4 OUTER ITERATIONS 
       AND A TOTAL OF         22 INNER ITERATIONS.
    ------------------------------------------------
                                                   Max.-Head-Change                        Max.-Flux-Residual
  Residual-Control   Outer-Iter.   Inner-Iter.     Column Row Layer    Max.-Head-Change    Column Row Layer    Max.-Flux-Residual            L2-New               L2-Old           Solver-Max-Delh
          0                 1           8             1    1     1      -0.5491855850E-01       1    1    1      -0.4723720731E+02      0.1133133995E+03      0.2196399903E+00     -0.5491855850E-01
          0                 2           7             1    1     1       0.4761618835E-02       1    1    1       0.4740474102E+01      0.1133596540E+02      0.1133133995E+03      0.4761618835E-02
          0                 3           4             1    1     1       0.2420272148E-03       1    1    1       0.2424319705E+00      0.5731239848E+00      0.1133596540E+02      0.2420272148E-03
          0                 4           3             1    1     1       0.1072054545E-04       1    9    1       0.1295641914E-01      0.2973809498E-01      0.5731239848E+00      0.1072054545E-04

    ------------------------------------------------
       NWT REQUIRED            4 OUTER ITERATIONS 
       AND A TOTAL OF         22 INNER ITERATIONS.
    ------------------------------------------------
                                                   Max.-Head-Change                        Max.-Flux-Residual
  Residual-Control   Outer-Iter.   Inner-Iter.     Column Row Layer    Max.-Head-Change    Column Row Layer    Max.-Flux-Residual            L2-New               L2-Old           Solver-Max-Delh
          0                 1           7             1    1     1      -0.2104320252E-01       1    1    1      -0.1835300569E+02      0.4040309633E+02      0.2973809498E-01     -0.2104320252E-01
          0                 2           6             1    1     1       0.1823725126E-02       1    1    1       0.1837362268E+01      0.4054271350E+01      0.4040309633E+02      0.1823725126E-02
          0                 3           4             1    1     1       0.9295556972E-04       1    1    1       0.9380663105E-01      0.2030085190E+00      0.4054271350E+01      0.9295556972E-04

    ------------------------------------------------
       NWT REQUIRED            3 OUTER ITERATIONS 
       AND A TOTAL OF         17 INNER ITERATIONS.
    ------------------------------------------------
                                                   Max.-Head-Change                        Max.-Flux-Residual
  Residual-Control   Outer-Iter.   Inner-Iter.     Column Row Layer    Max.-Head-Change    Column Row Layer    Max.-Flux-Residual            L2-New               L2-Old           Solver-Max-Delh
          0                 1           6             1    1     1      -0.6042212003E-02       1    1    1      -0.5465629916E+01      0.1236638300E+02      0.2030085190E+00     -0.6042212003E-02
          0                 2           5             1    1     1       0.5225470347E-03       1    1    1       0.5431729853E+00      0.1239563539E+01      0.1236638300E+02      0.5225470347E-03
          0                 3           3             1    1     1       0.3112510457E-04       1    1    1       0.3516796941E-01      0.7270477998E-01      0.1239563539E+01      0.3112510457E-04

    ------------------------------------------------
       NWT REQUIRED            3 OUTER ITERATIONS 
       AND A TOTAL OF         14 INNER ITERATIONS.
    ------------------------------------------------
                                                   Max.-Head-Change                        Max.-Flux-Residual
  Residual-Control   Outer-Iter.   Inner-Iter.     Column Row Layer    Max.-Head-Change    Column Row Layer    Max.-Flux-Residual            L2-New               L2-Old           Solver-Max-Delh
          0                 1           6             9    9     1       0.3699927076E-02       7    9    1       0.2366827172E+01      0.4903868966E+01      0.7270477998E-01      0.3699927076E-02
          0                 2           4             9    9     1      -0.3133958396E-03       7    9    1      -0.2400878388E+00      0.4843581023E+00      0.4903868966E+01     -0.3133958396E-03
          0                 3           3             9    9     1      -0.1743612470E-04       9    9    1      -0.1497584632E-01      0.2923887000E-01      0.4843581023E+00     -0.1743612470E-04

    ------------------------------------------------
       NWT REQUIRED            3 OUTER ITERATIONS 
       AND A TOTAL OF         13 INNER ITERATIONS.
    ------------------------------------------------
                                                   Max.-Head-Change                        Max.-Flux-Residual
  Residual-Control   Outer-Iter.   Inner-Iter.     Column Row Layer    Max.-Head-Change    Column Row Layer    Max.-Flux-Residual            L2-New               L2-Old           Solver-Max-Delh
          0                 1           6             9    9     1       0.1871172874E-02       1    9    1       0.1333986922E+01      0.3625167023E+01      0.2923887000E-01      0.1871172874E-02
          0                 2           4             9    9     1      -0.1627143729E-03       1    9    1      -0.1353596069E+00      0.3659693485E+00      0.3625167023E+01     -0.1627143729E-03
          0                 3           3             9    1     1      -0.1034470275E-04       1    8    1      -0.7421491551E-02      0.2484610558E-01      0.3659693485E+00     -0.1034470275E-04

    ------------------------------------------------
       NWT REQUIRED            3 OUTER ITERATIONS 
       AND A TOTAL OF         13 INNER ITERATIONS.
    ------------------------------------------------
                                                   Max.-Head-Change                        Max.-Flux-Residual
  Residual-Control   Outer-Iter.   Inner-Iter.     Column Row Layer    Max.-Head-Change    Column Row Layer    Max.-Flux-Residual            L2-New               L2-Old           Solver-Max-Delh
          0                 1           5             1    1     1       0.1158083980E-02       1    1    1       0.9605119802E+00      0.2633571659E+01      0.2484610558E-01      0.1158083980E-02
          0                 2           4             1    1     1      -0.1011880976E-03       1    1    1      -0.9989774774E-01      0.2630913390E+00      0.2633571659E+01     -0.1011880976E-03
          0                 3           2             1    6     1      -0.8149794712E-05       1    6    1      -0.7699102280E-02      0.2317314704E-01      0.2630913390E+00     -0.8149794712E-05

    ------------------------------------------------
       NWT REQUIRED            3 OUTER ITERATIONS 
       AND A TOTAL OF         11 INNER ITERATIONS.
    ------------------------------------------------
                                                   Max.-Head-Change                        Max.-Flux-Residual
  Residual-Control   Outer-Iter.   Inner-Iter.     Column Row Layer    Max.-Head-Change    Column Row Layer    Max.-Flux-Residual            L2-New               L2-Old           Solver-Max-Delh
          0                 1           5             1    1     1       0.7924170172E-03       1    1    1       0.6625577682E+00      0.1668692415E+01      0.2317314704E-01      0.7924170172E-03
          0                 2           4             2    1     1      -0.6922905913E-04       1    1    1      -0.6389573938E-01      0.1723178872E+00      0.1668692415E+01     -0.6922905913E-04

    ------------------------------------------------
       NWT REQUIRED            2 OUTER ITERATIONS 
       AND A TOTAL OF          9 INNER ITERATIONS.
    ------------------------------------------------
                                                   Max.-Head-Change                        Max.-Flux-Residual
  Residual-Control   Outer-Iter.   Inner-Iter.     Column Row Layer    Max.-Head-Change    Column Row Layer    Max.-Flux-Residual            L2-New               L2-Old           Solver-Max-Delh
          0                 1           5             1    1     1       0.4641000409E-03       1    1    1       0.4015529653E+00      0.9289380669E+00      0.1723178872E+00      0.4641000409E-03
          0                 2           4             1    1     1      -0.4023479186E-04       1    1    1      -0.3809497855E-01      0.9909303465E-01      0.9289380669E+00     -0.4023479186E-04

    ------------------------------------------------
       NWT REQUIRED            2 OUTER ITERATIONS 
       AND A TOTAL OF          9 INNER ITERATIONS.
    ------------------------------------------------
                                                   Max.-Head-Change                        Max.-Flux-Residual
  Residual-Control   Outer-Iter.   Inner-Iter.     Column Row Layer    Max.-Head-Change    Column Row Layer    Max.-Flux-Residual            L2-New               L2-Old           Solver-Max-Delh
          0                 1           4             1    1     1       0.2226762460E-03       1    1    1       0.1972142815E+00      0.4485934051E+00      0.9909303465E-01      0.2226762460E-03
          0                 2           3             1    1     1      -0.1957810862E-04       1    1    1      -0.2097127552E-01      0.4483715247E-01      0.4485934051E+00     -0.1957810862E-04

    ------------------------------------------------
       NWT REQUIRED            2 OUTER ITERATIONS 
       AND A TOTAL OF          7 INNER ITERATIONS.
    ------------------------------------------------

 OUTPUT CONTROL FOR STRESS PERIOD     16   TIME STEP     2
    SAVE BUDGET
 UBDSV1 SAVING "         STORAGE" ON UNIT7011 AT TIME STEP    2, STRESS PERIOD  16
 UBDSV2 SAVING "   CONSTANT HEAD" ON UNIT7011 AT TIME STEP    2, STRESS PERIOD  16
 UBDSV1 SAVING "FLOW RIGHT FACE " ON UNIT7011 AT TIME STEP    2, STRESS PERIOD  16
 UBDSV1 SAVING "FLOW FRONT FACE " ON UNIT7011 AT TIME STEP    2, STRESS PERIOD  16
 UBDSV1 SAVING "FLOW LOWER FACE " ON UNIT7011 AT TIME STEP    2, STRESS PERIOD  16
 
 
 
 
 
 
 
 
 UBDSV3 SAVING "FARM  NET  RECH." ON UNIT7011 AT TIME STEP    2, STRESS PERIOD  16
 UBDSV4 SAVING " GHOST-NODE HEAD" ON UNIT7011 AT TIME STEP    2, STRESS PERIOD  16
1
  VOLUMETRIC BUDGET FOR ENTIRE MODEL AT END OF TIME STEP    2 IN STRESS PERIOD     16
  ------------------------------------------------------------------------------

     CUMULATIVE VOLUMES      L**3       RATES FOR THIS TIME STEP      L**3/T
     ------------------                 ------------------------

           IN:                                      IN:
           ---                                      ---
             STORAGE =      134911.4062               STORAGE =        1119.4827
       CONSTANT HEAD =           0.0000         CONSTANT HEAD =           0.0000
          FARM WELLS =           0.0000            FARM WELLS =           0.0000
    FARM  NET  RECH. =     1148234.2500      FARM  NET  RECH. =        1339.2710
     GHOST-NODE HEAD =     4774888.0000       GHOST-NODE HEAD =        2411.8079

            TOTAL IN =     6058033.5000              TOTAL IN =        4870.5615

          OUT:                                     OUT:
          ----                                     ----
             STORAGE =     3809647.5000               STORAGE =           0.0000
       CONSTANT HEAD =           0.0000         CONSTANT HEAD =           0.0000
          FARM WELLS =     1310642.2500            FARM WELLS =        2826.1880
    FARM  NET  RECH. =           0.0000      FARM  NET  RECH. =           0.0000
     GHOST-NODE HEAD =      937741.3750       GHOST-NODE HEAD =        2044.3821

           TOTAL OUT =     6058031.5000             TOTAL OUT =        4870.5703

            IN - OUT =           2.0000              IN - OUT =      -8.7891E-03

 PERCENT DISCREPANCY =           0.00     PERCENT DISCREPANCY =          -0.00






          TIME SUMMARY AT END OF TIME STEP     2 IN STRESS PERIOD     16
                    SECONDS     MINUTES      HOURS       DAYS        YEARS
                    -----------------------------------------------------------
   TIME STEP LENGTH 1.31414E+06  21902.      365.04      15.210     4.16427E-02
 STRESS PERIOD TIME 2.62829E+06  43805.      730.08      30.420     8.32854E-02
         TOTAL TIME 4.20526E+07 7.00877E+05  11681.      486.72      1.3326    
1
1
  FLUX ACROSS PARENT-CHILD INTERFACE AT TIME STEP  2 IN STRESS PERIOD   16
  ------------------------------------------------------------------------
 G-N FLUX        PARENT        CHILD         DIFFERENCE      % DIFFERENCE
  RATE IN:      2.4117E+03    2.4118E+03    -7.3730E-02       -0.0031
 RATE OUT:      2.0446E+03    2.0444E+03     2.4792E-01        0.0121
1
                            STRESS PERIOD NO.     17, LENGTH =   30.42000    
                            -----------------------------------------------

                              NUMBER OF TIME STEPS =     2

                               MULTIPLIER FOR DELT =     1.000

                            INITIAL TIME STEP SIZE =   15.21000    

 Parameter:  WELLS1
 WELL NO. LAYER    ROW    COL  F-WELL ID    FARM ID         QMAX         QMAXRESET       LGRGRID         
 --------------------------------------------------------------------------------------------------------
       1      1      8      2          2          1      5.0000E+03              0              0
       2      1      8      8          3          1      5.0000E+03              0              0

 NUMBER OF ACTIVE FARM WELLS:        2

 FARM-ID  NUMBER OF WELLS PER FARM  TOTAL MAX.CAPACITY PER FARM
       1                         2                   10000.0000
       2                         0                       0.0000
       3                         0                       0.0000
       4                         0                       0.0000
       5                         0                       0.0000
       6                         0                       0.0000
       7                         0                       0.0000
       8                         0                       0.0000

Transpiratory and Evaporative Fractions of Crop Consumptive Use
    % Transpiration % Evap. for Precip. % Evap. for Irrig.
    2          0.940          0.060          0.060
    3          0.000          1.000          1.000

FRACTIONS OF IN-EFFICIENT LOSSES TO SW-RUNOFF FROM 
     PRECIPITATION:  IRRIGATION:
    2          0.400          0.300
    3          0.600          0.500
 
 SOLVING FOR HEAD 
                                                   Max.-Head-Change                        Max.-Flux-Residual
  Residual-Control   Outer-Iter.   Inner-Iter.     Column Row Layer    Max.-Head-Change    Column Row Layer    Max.-Flux-Residual            L2-New               L2-Old           Solver-Max-Delh
          0                 1          10             8    8     1      -0.2096358708E+01       8    8    1      -0.2488346689E+04      0.3610375457E+04      0.4483715247E-01     -0.2096358708E+01
          0                 2           8             8    8     1       0.1663567052E+00       2    8    1       0.2190095290E+03      0.3145296452E+03      0.3610375457E+04      0.1663567052E+00
          0                 3           7             8    8     1       0.8326572115E-02       2    8    1       0.1076891368E+02      0.1542040215E+02      0.3145296452E+03      0.8326572115E-02
          0                 4           4             8    8     1       0.4179802193E-03       2    8    1       0.5378757769E+00      0.7683038485E+00      0.1542040215E+02      0.4179802193E-03
          0                 5           3             8    8     1       0.2230989331E-04       2    8    1       0.2688468265E-01      0.4435148628E-01      0.7683038485E+00      0.2230989331E-04

    ------------------------------------------------
       NWT REQUIRED            5 OUTER ITERATIONS 
       AND A TOTAL OF         32 INNER ITERATIONS.
    ------------------------------------------------
                                                   Max.-Head-Change                        Max.-Flux-Residual
  Residual-Control   Outer-Iter.   Inner-Iter.     Column Row Layer    Max.-Head-Change    Column Row Layer    Max.-Flux-Residual            L2-New               L2-Old           Solver-Max-Delh
          0                 1           9             9    1     1      -0.6450877589E+00       2    8    1       0.5144827700E+03      0.1112369180E+04      0.4435148628E-01     -0.6450877589E+00
          0                 2           8             9    1     1       0.5643672442E-01       8    8    1      -0.5063932698E+02      0.1104451453E+03      0.1112369180E+04      0.5643672442E-01
          0                 3           6             9    1     1       0.2695998065E-02       8    8    1      -0.2531988130E+01      0.5405943456E+01      0.1104451453E+03      0.2695998065E-02
          0                 4           4             9    1     1       0.1300781900E-03       8    8    1      -0.1265847760E+00      0.2685115078E+00      0.5405943456E+01      0.1300781900E-03
          0                 5           2             9    1     1       0.6492733873E-05       9    1    1       0.8007808414E-02      0.1962110808E-01      0.2685115078E+00      0.6492733873E-05

    ------------------------------------------------
       NWT REQUIRED            5 OUTER ITERATIONS 
       AND A TOTAL OF         29 INNER ITERATIONS.
    ------------------------------------------------
                                                   Max.-Head-Change                        Max.-Flux-Residual
  Residual-Control   Outer-Iter.   Inner-Iter.     Column Row Layer    Max.-Head-Change    Column Row Layer    Max.-Flux-Residual            L2-New               L2-Old           Solver-Max-Delh
          0                 1           8             9    1     1      -0.2570827531E+00       8    1    1      -0.1482521297E+03      0.3635110238E+03      0.1962110808E-01     -0.2570827531E+00
          0                 2           7             9    1     1       0.2268371612E-01       7    1    1       0.1515121835E+02      0.3649919573E+02      0.3635110238E+03      0.2268371612E-01
          0                 3           5             9    1     1       0.1079970405E-02       8    1    1       0.7157026599E+00      0.1792831141E+01      0.3649919573E+02      0.1079970405E-02
          0                 4           3             9    1     1       0.5379324001E-04       9    1    1       0.3774572001E-01      0.9343709305E-01      0.1792831141E+01      0.5379324001E-04

    ------------------------------------------------
       NWT REQUIRED            4 OUTER ITERATIONS 
       AND A TOTAL OF         23 INNER ITERATIONS.
    ------------------------------------------------
                                                   Max.-Head-Change                        Max.-Flux-Residual
  Residual-Control   Outer-Iter.   Inner-Iter.     Column Row Layer    Max.-Head-Change    Column Row Layer    Max.-Flux-Residual            L2-New               L2-Old           Solver-Max-Delh
          0                 1           8             9    1     1      -0.7093295086E-01       1    9    1      -0.5695847010E+02      0.1419832986E+03      0.9343709305E-01     -0.7093295086E-01
          0                 2           7             9    1     1       0.6278437025E-02       1    9    1       0.5585557041E+01      0.1411490174E+02      0.1419832986E+03      0.6278437025E-02
          0                 3           4             9    1     1       0.2997760152E-03       1    9    1       0.2866846372E+00      0.7118353195E+00      0.1411490174E+02      0.2997760152E-03
          0                 4           3             9    1     1       0.1903341104E-04       9    1    1       0.1506648998E-01      0.3559279324E-01      0.7118353195E+00      0.1903341104E-04

    ------------------------------------------------
       NWT REQUIRED            4 OUTER ITERATIONS 
       AND A TOTAL OF         22 INNER ITERATIONS.
    ------------------------------------------------
                                                   Max.-Head-Change                        Max.-Flux-Residual
  Residual-Control   Outer-Iter.   Inner-Iter.     Column Row Layer    Max.-Head-Change    Column Row Layer    Max.-Flux-Residual            L2-New               L2-Old           Solver-Max-Delh
          0                 1           8             1    9     1      -0.3252412611E-01       1    9    1      -0.2928896555E+02      0.5546702866E+02      0.3559279324E-01     -0.3252412611E-01
          0                 2           6             1    9     1       0.2751325280E-02       1    9    1       0.2871032019E+01      0.5453932959E+01      0.5546702866E+02      0.2751325280E-02
          0                 3           4             1    9     1       0.1433713710E-03       1    9    1       0.1492715494E+00      0.2806474573E+00      0.5453932959E+01      0.1433713710E-03
          0                 4           2             6    9     1       0.8101901376E-05       6    9    1       0.8161854174E-02      0.2129145317E-01      0.2806474573E+00      0.8101901376E-05

    ------------------------------------------------
       NWT REQUIRED            4 OUTER ITERATIONS 
       AND A TOTAL OF         20 INNER ITERATIONS.
    ------------------------------------------------
                                                   Max.-Head-Change                        Max.-Flux-Residual
  Residual-Control   Outer-Iter.   Inner-Iter.     Column Row Layer    Max.-Head-Change    Column Row Layer    Max.-Flux-Residual            L2-New               L2-Old           Solver-Max-Delh
          0                 1           6             9    1     1       0.1395840880E-01       1    9    1      -0.1308383244E+02      0.2860253480E+02      0.2129145317E-01      0.1395840880E-01
          0                 2           5             9    1     1      -0.1240501447E-02       1    9    1       0.1280463177E+01      0.2861875285E+01      0.2860253480E+02     -0.1240501447E-02
          0                 3           3             1    9     1       0.6512938295E-04       1    9    1       0.7355715777E-01      0.1469375868E+00      0.2861875285E+01      0.6512938295E-04

    ------------------------------------------------
       NWT REQUIRED            3 OUTER ITERATIONS 
       AND A TOTAL OF         14 INNER ITERATIONS.
    ------------------------------------------------
                                                   Max.-Head-Change                        Max.-Flux-Residual
  Residual-Control   Outer-Iter.   Inner-Iter.     Column Row Layer    Max.-Head-Change    Column Row Layer    Max.-Flux-Residual            L2-New               L2-Old           Solver-Max-Delh
          0                 1           7             9    1     1       0.1254787542E-01       8    1    1       0.7567358276E+01      0.1719752441E+02      0.1469375868E+00      0.1254787542E-01
          0                 2           5             9    1     1      -0.1112720090E-02       8    1    1      -0.7788516154E+00      0.1746103332E+01      0.1719752441E+02     -0.1112720090E-02
          0                 3           3             9    1     1      -0.5554520459E-04       8    1    1      -0.4111865477E-01      0.9082373709E-01      0.1746103332E+01     -0.5554520459E-04

    ------------------------------------------------
       NWT REQUIRED            3 OUTER ITERATIONS 
       AND A TOTAL OF         15 INNER ITERATIONS.
    ------------------------------------------------
                                                   Max.-Head-Change                        Max.-Flux-Residual
  Residual-Control   Outer-Iter.   Inner-Iter.     Column Row Layer    Max.-Head-Change    Column Row Layer    Max.-Flux-Residual            L2-New               L2-Old           Solver-Max-Delh
          0                 1           6             9    1     1       0.7618911782E-02       8    1    1       0.4581327046E+01      0.9456415857E+01      0.9082373709E-01      0.7618911782E-02
          0                 2           5             9    1     1      -0.6788016406E-03       9    1    1      -0.4745593334E+00      0.9655652255E+00      0.9456415857E+01     -0.6788016406E-03
          0                 3           3             8    1     1      -0.3273972349E-04       7    1    1      -0.2705093683E-01      0.5269859446E-01      0.9655652255E+00     -0.3273972349E-04

    ------------------------------------------------
       NWT REQUIRED            3 OUTER ITERATIONS 
       AND A TOTAL OF         14 INNER ITERATIONS.
    ------------------------------------------------
                                                   Max.-Head-Change                        Max.-Flux-Residual
  Residual-Control   Outer-Iter.   Inner-Iter.     Column Row Layer    Max.-Head-Change    Column Row Layer    Max.-Flux-Residual            L2-New               L2-Old           Solver-Max-Delh
          0                 1           6             9    1     1       0.3714360925E-02       8    1    1       0.2251880526E+01      0.4545936411E+01      0.5269859446E-01      0.3714360925E-02
          0                 2           4             9    1     1      -0.3337158702E-03       7    1    1      -0.2369962297E+00      0.4684675079E+00      0.4545936411E+01     -0.3337158702E-03
          0                 3           3             8    1     1      -0.1310285721E-04       7    1    1      -0.1014543069E-01      0.2646059815E-01      0.4684675079E+00     -0.1310285721E-04

    ------------------------------------------------
       NWT REQUIRED            3 OUTER ITERATIONS 
       AND A TOTAL OF         13 INNER ITERATIONS.
    ------------------------------------------------
                                                   Max.-Head-Change                        Max.-Flux-Residual
  Residual-Control   Outer-Iter.   Inner-Iter.     Column Row Layer    Max.-Head-Change    Column Row Layer    Max.-Flux-Residual            L2-New               L2-Old           Solver-Max-Delh
          0                 1           5             9    1     1       0.1518750981E-02       7    1    1       0.9401129569E+00      0.2028276579E+01      0.2646059815E-01      0.1518750981E-02
          0                 2           4             9    1     1      -0.1380458701E-03       9    1    1      -0.9930854093E-01      0.2099101039E+00      0.2028276579E+01     -0.1380458701E-03
          0                 3           2             8    1     1      -0.7801259636E-05       7    1    1      -0.9206248564E-02      0.2159407924E-01      0.2099101039E+00     -0.7801259636E-05

    ------------------------------------------------
       NWT REQUIRED            3 OUTER ITERATIONS 
       AND A TOTAL OF         11 INNER ITERATIONS.
    ------------------------------------------------
                                                   Max.-Head-Change                        Max.-Flux-Residual
  Residual-Control   Outer-Iter.   Inner-Iter.     Column Row Layer    Max.-Head-Change    Column Row Layer    Max.-Flux-Residual            L2-New               L2-Old           Solver-Max-Delh
          0                 1           5             9    1     1       0.4794638052E-03       8    1    1       0.3205697004E+00      0.9121964850E+00      0.2159407924E-01      0.4794638052E-03
          0                 2           3             8    1     1      -0.4525565252E-04       8    1    1      -0.3970188810E-01      0.9349719924E-01      0.9121964850E+00     -0.4525565252E-04

    ------------------------------------------------
       NWT REQUIRED            2 OUTER ITERATIONS 
       AND A TOTAL OF          8 INNER ITERATIONS.
    ------------------------------------------------
                                                   Max.-Head-Change                        Max.-Flux-Residual
  Residual-Control   Outer-Iter.   Inner-Iter.     Column Row Layer    Max.-Head-Change    Column Row Layer    Max.-Flux-Residual            L2-New               L2-Old           Solver-Max-Delh
          0                 1           4             1    9     1       0.2367814549E-03       1    9    1       0.2147833366E+00      0.4591272905E+00      0.9349719924E-01      0.2367814549E-03
          0                 2           3             1    9     1      -0.2198418699E-04       1    9    1      -0.2252140088E-01      0.5139928298E-01      0.4591272905E+00     -0.2198418699E-04

    ------------------------------------------------
       NWT REQUIRED            2 OUTER ITERATIONS 
       AND A TOTAL OF          7 INNER ITERATIONS.
    ------------------------------------------------

 OUTPUT CONTROL FOR STRESS PERIOD     17   TIME STEP     1
    SAVE BUDGET
 UBDSV1 SAVING "         STORAGE" ON UNIT7011 AT TIME STEP    1, STRESS PERIOD  17
 UBDSV2 SAVING "   CONSTANT HEAD" ON UNIT7011 AT TIME STEP    1, STRESS PERIOD  17
 UBDSV1 SAVING "FLOW RIGHT FACE " ON UNIT7011 AT TIME STEP    1, STRESS PERIOD  17
 UBDSV1 SAVING "FLOW FRONT FACE " ON UNIT7011 AT TIME STEP    1, STRESS PERIOD  17
 UBDSV1 SAVING "FLOW LOWER FACE " ON UNIT7011 AT TIME STEP    1, STRESS PERIOD  17
 
 
 
 
 
 
 
 
 UBDSV3 SAVING "FARM  NET  RECH." ON UNIT7011 AT TIME STEP    1, STRESS PERIOD  17
 UBDSV4 SAVING " GHOST-NODE HEAD" ON UNIT7011 AT TIME STEP    1, STRESS PERIOD  17
1
  FLUX ACROSS PARENT-CHILD INTERFACE AT TIME STEP  1 IN STRESS PERIOD   17
  ------------------------------------------------------------------------
 G-N FLUX        PARENT        CHILD         DIFFERENCE      % DIFFERENCE
  RATE IN:      4.7868E+03    4.7871E+03    -3.8965E-01       -0.0081
 RATE OUT:      3.1570E+03    3.1568E+03     2.3999E-01        0.0076
 
 SOLVING FOR HEAD 
                                                   Max.-Head-Change                        Max.-Flux-Residual
  Residual-Control   Outer-Iter.   Inner-Iter.     Column Row Layer    Max.-Head-Change    Column Row Layer    Max.-Flux-Residual            L2-New               L2-Old           Solver-Max-Delh
          0                 1           9             8    8     1      -0.9064201877E+00       8    8    1      -0.5610463719E+03      0.1078654268E+04      0.5139928298E-01     -0.9064201877E+00
          0                 2           8             8    8     1       0.7527360991E-01       2    8    1       0.5111194850E+02      0.1044503182E+03      0.1078654268E+04      0.7527360991E-01
          0                 3           6             8    8     1       0.3823230202E-02       2    8    1       0.2530579692E+01      0.5205694082E+01      0.1044503182E+03      0.3823230202E-02
          0                 4           4             8    8     1       0.1929466412E-03       2    8    1       0.1264721586E+00      0.2570598559E+00      0.5205694082E+01      0.1929466412E-03
          0                 5           3             8    8     1       0.1108215067E-04       2    1    1       0.7492273115E-02      0.2143055889E-01      0.2570598559E+00      0.1108215067E-04

    ------------------------------------------------
       NWT REQUIRED            5 OUTER ITERATIONS 
       AND A TOTAL OF         30 INNER ITERATIONS.
    ------------------------------------------------
                                                   Max.-Head-Change                        Max.-Flux-Residual
  Residual-Control   Outer-Iter.   Inner-Iter.     Column Row Layer    Max.-Head-Change    Column Row Layer    Max.-Flux-Residual            L2-New               L2-Old           Solver-Max-Delh
          0                 1           9             8    8     1       0.2518239027E+00       2    8    1       0.4882556084E+03      0.7977828269E+03      0.2143055889E-01      0.2518239027E+00
          0                 2           7             8    8     1      -0.2181185399E-01       8    8    1      -0.4936672352E+02      0.8024862531E+02      0.7977828269E+03     -0.2181185399E-01
          0                 3           5             8    8     1      -0.1095748083E-02       8    8    1      -0.2472451579E+01      0.4004597122E+01      0.8024862531E+02     -0.1095748083E-02
          0                 4           4             8    8     1      -0.5621108760E-04       8    8    1      -0.1236226496E+00      0.1993289404E+00      0.4004597122E+01     -0.5621108760E-04

    ------------------------------------------------
       NWT REQUIRED            4 OUTER ITERATIONS 
       AND A TOTAL OF         25 INNER ITERATIONS.
    ------------------------------------------------
                                                   Max.-Head-Change                        Max.-Flux-Residual
  Residual-Control   Outer-Iter.   Inner-Iter.     Column Row Layer    Max.-Head-Change    Column Row Layer    Max.-Flux-Residual            L2-New               L2-Old           Solver-Max-Delh
          0                 1           8             9    1     1      -0.9738854562E-01       1    1    1      -0.6404246801E+02      0.1953117343E+03      0.1993289404E+00     -0.9738854562E-01
          0                 2           7             9    1     1       0.8619626002E-02       1    1    1       0.6428003233E+01      0.1948189695E+02      0.1953117343E+03      0.8619626002E-02
          0                 3           5             9    1     1       0.4131821275E-03       1    1    1       0.3148391555E+00      0.9745126923E+00      0.1948189695E+02      0.4131821275E-03
          0                 4           3             1    1     1       0.1968177081E-04       1    1    1       0.2201399696E-01      0.5221830029E-01      0.9745126923E+00      0.1968177081E-04

    ------------------------------------------------
       NWT REQUIRED            4 OUTER ITERATIONS 
       AND A TOTAL OF         23 INNER ITERATIONS.
    ------------------------------------------------
                                                   Max.-Head-Change                        Max.-Flux-Residual
  Residual-Control   Outer-Iter.   Inner-Iter.     Column Row Layer    Max.-Head-Change    Column Row Layer    Max.-Flux-Residual            L2-New               L2-Old           Solver-Max-Delh
          0                 1           8             9    1     1      -0.3742597422E-01       1    1    1      -0.2908366204E+02      0.8148563572E+02      0.5221830029E-01     -0.3742597422E-01
          0                 2           6             9    1     1       0.3324253486E-02       1    1    1       0.2921564497E+01      0.8131252799E+01      0.8148563572E+02      0.3324253486E-02
          0                 3           4             8    1     1       0.1553869271E-03       1    1    1       0.1489970599E+00      0.4094027572E+00      0.8131252799E+01      0.1553869271E-03
          0                 4           3             9    1     1       0.1259881028E-04       8    9    1       0.8760747965E-02      0.2788418222E-01      0.4094027572E+00      0.1259881028E-04

    ------------------------------------------------
       NWT REQUIRED            4 OUTER ITERATIONS 
       AND A TOTAL OF         21 INNER ITERATIONS.
    ------------------------------------------------
                                                   Max.-Head-Change                        Max.-Flux-Residual
  Residual-Control   Outer-Iter.   Inner-Iter.     Column Row Layer    Max.-Head-Change    Column Row Layer    Max.-Flux-Residual            L2-New               L2-Old           Solver-Max-Delh
          0                 1           7             1    1     1      -0.1354449065E-01       1    1    1      -0.1149546688E+02      0.2809589281E+02      0.2788418222E-01     -0.1354449065E-01
          0                 2           5             1    1     1       0.1176290183E-02       1    1    1       0.1157112392E+01      0.2802043954E+01      0.2809589281E+02      0.1176290183E-02
          0                 3           4             1    2     2       0.5787150948E-04       1    1    1       0.5134002760E-01      0.1352540983E+00      0.2802043954E+01      0.5787150948E-04

    ------------------------------------------------
       NWT REQUIRED            3 OUTER ITERATIONS 
       AND A TOTAL OF         16 INNER ITERATIONS.
    ------------------------------------------------
                                                   Max.-Head-Change                        Max.-Flux-Residual
  Residual-Control   Outer-Iter.   Inner-Iter.     Column Row Layer    Max.-Head-Change    Column Row Layer    Max.-Flux-Residual            L2-New               L2-Old           Solver-Max-Delh
          0                 1           6             1    1     2      -0.4058100527E-02       1    1    1      -0.3596079258E+01      0.7684317340E+01      0.1352540983E+00     -0.4058100527E-02
          0                 2           5             1    1     2       0.3498575041E-03       1    1    1       0.3590187962E+00      0.7607624856E+00      0.7684317340E+01      0.3498575041E-03
          0                 3           3             1    2     1       0.1994114363E-04       1    9    1       0.1707567618E-01      0.4413306376E-01      0.7607624856E+00      0.1994114363E-04

    ------------------------------------------------
       NWT REQUIRED            3 OUTER ITERATIONS 
       AND A TOTAL OF         14 INNER ITERATIONS.
    ------------------------------------------------
                                                   Max.-Head-Change                        Max.-Flux-Residual
  Residual-Control   Outer-Iter.   Inner-Iter.     Column Row Layer    Max.-Head-Change    Column Row Layer    Max.-Flux-Residual            L2-New               L2-Old           Solver-Max-Delh
          0                 1           5             9    1     1       0.1958387331E-02       9    1    1       0.1100156818E+01      0.3162894159E+01      0.4413306376E-01      0.1958387331E-02
          0                 2           4             9    1     1      -0.1722460092E-03       8    1    1      -0.1173601584E+00      0.3135545702E+00      0.3162894159E+01     -0.1722460092E-03
          0                 3           2             9    1     1      -0.1165555265E-04       4    1    1      -0.9900277015E-02      0.2969853172E-01      0.3135545702E+00     -0.1165555265E-04

    ------------------------------------------------
       NWT REQUIRED            3 OUTER ITERATIONS 
       AND A TOTAL OF         11 INNER ITERATIONS.
    ------------------------------------------------
                                                   Max.-Head-Change                        Max.-Flux-Residual
  Residual-Control   Outer-Iter.   Inner-Iter.     Column Row Layer    Max.-Head-Change    Column Row Layer    Max.-Flux-Residual            L2-New               L2-Old           Solver-Max-Delh
          0                 1           5             9    1     1       0.1771541900E-02       9    1    1       0.9554117353E+00      0.2602871593E+01      0.2969853172E-01      0.1771541900E-02
          0                 2           4             9    1     1      -0.1573517907E-03       9    1    1      -0.9977591038E-01      0.2615424682E+00      0.2602871593E+01     -0.1573517907E-03
          0                 3           2             9    1     1      -0.7650235398E-05       1    7    1      -0.8309273398E-02      0.2108751515E-01      0.2615424682E+00     -0.7650235398E-05

    ------------------------------------------------
       NWT REQUIRED            3 OUTER ITERATIONS 
       AND A TOTAL OF         11 INNER ITERATIONS.
    ------------------------------------------------
                                                   Max.-Head-Change                        Max.-Flux-Residual
  Residual-Control   Outer-Iter.   Inner-Iter.     Column Row Layer    Max.-Head-Change    Column Row Layer    Max.-Flux-Residual            L2-New               L2-Old           Solver-Max-Delh
          0                 1           5             9    1     1       0.1096059496E-02       9    1    1       0.5856038959E+00      0.1816021638E+01      0.2108751515E-01      0.1096059496E-02
          0                 2           4             9    1     1      -0.9664118229E-04       9    1    1      -0.6382256956E-01      0.1803885563E+00      0.1816021638E+01     -0.9664118229E-04

    ------------------------------------------------
       NWT REQUIRED            2 OUTER ITERATIONS 
       AND A TOTAL OF          9 INNER ITERATIONS.
    ------------------------------------------------
                                                   Max.-Head-Change                        Max.-Flux-Residual
  Residual-Control   Outer-Iter.   Inner-Iter.     Column Row Layer    Max.-Head-Change    Column Row Layer    Max.-Flux-Residual            L2-New               L2-Old           Solver-Max-Delh
          0                 1           5             9    1     1       0.5374044344E-03       1    9    1       0.3686636068E+00      0.1076775267E+01      0.1803885563E+00      0.5374044344E-03
          0                 2           4             9    1     1      -0.4919473164E-04       1    9    1      -0.3667668108E-01      0.1109163314E+00      0.1076775267E+01     -0.4919473164E-04

    ------------------------------------------------
       NWT REQUIRED            2 OUTER ITERATIONS 
       AND A TOTAL OF          9 INNER ITERATIONS.
    ------------------------------------------------
                                                   Max.-Head-Change                        Max.-Flux-Residual
  Residual-Control   Outer-Iter.   Inner-Iter.     Column Row Layer    Max.-Head-Change    Column Row Layer    Max.-Flux-Residual            L2-New               L2-Old           Solver-Max-Delh
          0                 1           5             1    1     1       0.2553051945E-03       1    1    1       0.2157356857E+00      0.5742693022E+00      0.1109163314E+00      0.2553051945E-03
          0                 2           3             1    1     1      -0.2324303036E-04       1    1    1      -0.2562262060E-01      0.5905217290E-01      0.5742693022E+00     -0.2324303036E-04

    ------------------------------------------------
       NWT REQUIRED            2 OUTER ITERATIONS 
       AND A TOTAL OF          8 INNER ITERATIONS.
    ------------------------------------------------

 OUTPUT CONTROL FOR STRESS PERIOD     17   TIME STEP     2
    SAVE BUDGET
 UBDSV1 SAVING "         STORAGE" ON UNIT7011 AT TIME STEP    2, STRESS PERIOD  17
 UBDSV2 SAVING "   CONSTANT HEAD" ON UNIT7011 AT TIME STEP    2, STRESS PERIOD  17
 UBDSV1 SAVING "FLOW RIGHT FACE " ON UNIT7011 AT TIME STEP    2, STRESS PERIOD  17
 UBDSV1 SAVING "FLOW FRONT FACE " ON UNIT7011 AT TIME STEP    2, STRESS PERIOD  17
 UBDSV1 SAVING "FLOW LOWER FACE " ON UNIT7011 AT TIME STEP    2, STRESS PERIOD  17
 
 
 
 
 
 
 
 
 UBDSV3 SAVING "FARM  NET  RECH." ON UNIT7011 AT TIME STEP    2, STRESS PERIOD  17
 UBDSV4 SAVING " GHOST-NODE HEAD" ON UNIT7011 AT TIME STEP    2, STRESS PERIOD  17
1
  VOLUMETRIC BUDGET FOR ENTIRE MODEL AT END OF TIME STEP    2 IN STRESS PERIOD     17
  ------------------------------------------------------------------------------

     CUMULATIVE VOLUMES      L**3       RATES FOR THIS TIME STEP      L**3/T
     ------------------                 ------------------------

           IN:                                      IN:
           ---                                      ---
             STORAGE =      214151.5469               STORAGE =        2162.3630
       CONSTANT HEAD =           0.0000         CONSTANT HEAD =           0.0000
          FARM WELLS =           0.0000            FARM WELLS =           0.0000
    FARM  NET  RECH. =     1210877.7500      FARM  NET  RECH. =        2059.2849
     GHOST-NODE HEAD =     4932334.0000       GHOST-NODE HEAD =        5564.3369

            TOTAL IN =     6357363.0000              TOTAL IN =        9785.9844

          OUT:                                     OUT:
          ----                                     ----
             STORAGE =     3809647.5000               STORAGE =           0.0000
       CONSTANT HEAD =           0.0000         CONSTANT HEAD =           0.0000
          FARM WELLS =     1515581.5000            FARM WELLS =        6736.9893
    FARM  NET  RECH. =           0.0000      FARM  NET  RECH. =           0.0000
     GHOST-NODE HEAD =     1032131.5625       GHOST-NODE HEAD =        3048.9951

           TOTAL OUT =     6357360.5000             TOTAL OUT =        9785.9844

            IN - OUT =           2.5000              IN - OUT =           0.0000

 PERCENT DISCREPANCY =           0.00     PERCENT DISCREPANCY =           0.00






          TIME SUMMARY AT END OF TIME STEP     2 IN STRESS PERIOD     17
                    SECONDS     MINUTES      HOURS       DAYS        YEARS
                    -----------------------------------------------------------
   TIME STEP LENGTH 1.31414E+06  21902.      365.04      15.210     4.16427E-02
 STRESS PERIOD TIME 2.62829E+06  43805.      730.08      30.420     8.32854E-02
         TOTAL TIME 4.46809E+07 7.44681E+05  12411.      517.14      1.4159    
1
1
  FLUX ACROSS PARENT-CHILD INTERFACE AT TIME STEP  2 IN STRESS PERIOD   17
  ------------------------------------------------------------------------
 G-N FLUX        PARENT        CHILD         DIFFERENCE      % DIFFERENCE
  RATE IN:      5.5646E+03    5.5643E+03     2.7051E-01        0.0049
 RATE OUT:      3.0492E+03    3.0490E+03     2.0801E-01        0.0068
1
                            STRESS PERIOD NO.     18, LENGTH =   30.42000    
                            -----------------------------------------------

                              NUMBER OF TIME STEPS =     2

                               MULTIPLIER FOR DELT =     1.000

                            INITIAL TIME STEP SIZE =   15.21000    

 Parameter:  WELLS1
 WELL NO. LAYER    ROW    COL  F-WELL ID    FARM ID         QMAX         QMAXRESET       LGRGRID         
 --------------------------------------------------------------------------------------------------------
       1      1      8      2          2          1      5.0000E+03              0              0
       2      1      8      8          3          1      5.0000E+03              0              0

 NUMBER OF ACTIVE FARM WELLS:        2

 FARM-ID  NUMBER OF WELLS PER FARM  TOTAL MAX.CAPACITY PER FARM
       1                         2                   10000.0000
       2                         0                       0.0000
       3                         0                       0.0000
       4                         0                       0.0000
       5                         0                       0.0000
       6                         0                       0.0000
       7                         0                       0.0000
       8                         0                       0.0000

Transpiratory and Evaporative Fractions of Crop Consumptive Use
    % Transpiration % Evap. for Precip. % Evap. for Irrig.
    2          0.950          0.050          0.050
    3          0.000          1.000          1.000

FRACTIONS OF IN-EFFICIENT LOSSES TO SW-RUNOFF FROM 
     PRECIPITATION:  IRRIGATION:
    2          0.400          0.300
    3          0.600          0.500
 
 SOLVING FOR HEAD 
                                                   Max.-Head-Change                        Max.-Flux-Residual
  Residual-Control   Outer-Iter.   Inner-Iter.     Column Row Layer    Max.-Head-Change    Column Row Layer    Max.-Flux-Residual            L2-New               L2-Old           Solver-Max-Delh
          0                 1           9             8    8     1      -0.1512541927E+01       8    8    1      -0.1657403077E+04      0.2394567245E+04      0.5905217290E-01     -0.1512541927E+01
          0                 2           8             8    8     1       0.1216020883E+00       2    8    1       0.1488146783E+03      0.2146848758E+03      0.2394567245E+04      0.1216020883E+00
          0                 3           6             8    8     1       0.6163872241E-02       2    8    1       0.7338790302E+01      0.1061571737E+02      0.2146848758E+03      0.6163872241E-02
          0                 4           4             8    8     1       0.3167953816E-03       2    8    1       0.3667080803E+00      0.5351882076E+00      0.1061571737E+02      0.3167953816E-03
          0                 5           3             8    8     1       0.1763590059E-04       2    8    1       0.1824815531E-01      0.2982732722E-01      0.5351882076E+00      0.1763590059E-04

    ------------------------------------------------
       NWT REQUIRED            5 OUTER ITERATIONS 
       AND A TOTAL OF         30 INNER ITERATIONS.
    ------------------------------------------------
                                                   Max.-Head-Change                        Max.-Flux-Residual
  Residual-Control   Outer-Iter.   Inner-Iter.     Column Row Layer    Max.-Head-Change    Column Row Layer    Max.-Flux-Residual            L2-New               L2-Old           Solver-Max-Delh
          0                 1           9             8    8     1       0.9085052196E+00       2    8    1       0.1279013215E+04      0.1841347874E+04      0.2982732722E-01      0.9085052196E+00
          0                 2           8             8    8     1      -0.7827869190E-01       8    8    1      -0.1328080984E+03      0.1891218647E+03      0.1841347874E+04     -0.7827869190E-01
          0                 3           6             8    8     1      -0.3979258884E-02       8    8    1      -0.6700307721E+01      0.9507843193E+01      0.1891218647E+03     -0.3979258884E-02
          0                 4           4             8    8     1      -0.1976064545E-03       8    8    1      -0.3351140020E+00      0.4748516683E+00      0.9507843193E+01     -0.1976064545E-03
          0                 5           2             8    8     1      -0.1158425578E-04       8    8    1      -0.1672958327E-01      0.2645310211E-01      0.4748516683E+00     -0.1158425578E-04

    ------------------------------------------------
       NWT REQUIRED            5 OUTER ITERATIONS 
       AND A TOTAL OF         29 INNER ITERATIONS.
    ------------------------------------------------
                                                   Max.-Head-Change                        Max.-Flux-Residual
  Residual-Control   Outer-Iter.   Inner-Iter.     Column Row Layer    Max.-Head-Change    Column Row Layer    Max.-Flux-Residual            L2-New               L2-Old           Solver-Max-Delh
          0                 1           8             1    1     3      -0.4904046187E-01       1    9    1      -0.3977669635E+02      0.1030756304E+03      0.2645310211E-01     -0.4904046187E-01
          0                 2           6             1    1     3       0.4232757361E-02       1    9    1       0.3887204312E+01      0.1018731007E+02      0.1030756304E+03      0.4232757361E-02
          0                 3           4             1    1     3       0.2130442942E-03       1    9    1       0.1998184808E+00      0.5161840043E+00      0.1018731007E+02      0.2130442942E-03
          0                 4           3             7    1     3       0.1151235339E-04       9    1    1      -0.1031663700E-01      0.3198172281E-01      0.5161840043E+00      0.1151235339E-04

    ------------------------------------------------
       NWT REQUIRED            4 OUTER ITERATIONS 
       AND A TOTAL OF         21 INNER ITERATIONS.
    ------------------------------------------------
                                                   Max.-Head-Change                        Max.-Flux-Residual
  Residual-Control   Outer-Iter.   Inner-Iter.     Column Row Layer    Max.-Head-Change    Column Row Layer    Max.-Flux-Residual            L2-New               L2-Old           Solver-Max-Delh
          0                 1           7             6    1     2      -0.2642549116E-01       1    1    1      -0.1549895705E+02      0.3716021391E+02      0.3198172281E-01     -0.2642549116E-01
          0                 2           5             6    1     2       0.2284328450E-02       1    1    1       0.1546353291E+01      0.3719969419E+01      0.3716021391E+02      0.2284328450E-02
          0                 3           4             6    1     2       0.1142602094E-03       1    1    1       0.8069622528E-01      0.1885102853E+00      0.3719969419E+01      0.1142602094E-03
          0                 4           2             8    1     1       0.6027607888E-05       1    1    1       0.8242921554E-02      0.1518959159E-01      0.1885102853E+00      0.6027607888E-05

    ------------------------------------------------
       NWT REQUIRED            4 OUTER ITERATIONS 
       AND A TOTAL OF         18 INNER ITERATIONS.
    ------------------------------------------------
                                                   Max.-Head-Change                        Max.-Flux-Residual
  Residual-Control   Outer-Iter.   Inner-Iter.     Column Row Layer    Max.-Head-Change    Column Row Layer    Max.-Flux-Residual            L2-New               L2-Old           Solver-Max-Delh
          0                 1           7             9    1     2      -0.1602486896E-01       9    1    1      -0.9090131784E+01      0.2926462508E+02      0.1518959159E-01     -0.1602486896E-01
          0                 2           5             9    1     2       0.1389478109E-02       8    1    1       0.9276738939E+00      0.2929677118E+01      0.2926462508E+02      0.1389478109E-02
          0                 3           3             9    1     2       0.6876740658E-04       7    1    1       0.4812501348E-01      0.1458426980E+00      0.2929677118E+01      0.6876740658E-04

    ------------------------------------------------
       NWT REQUIRED            3 OUTER ITERATIONS 
       AND A TOTAL OF         15 INNER ITERATIONS.
    ------------------------------------------------
                                                   Max.-Head-Change                        Max.-Flux-Residual
  Residual-Control   Outer-Iter.   Inner-Iter.     Column Row Layer    Max.-Head-Change    Column Row Layer    Max.-Flux-Residual            L2-New               L2-Old           Solver-Max-Delh
          0                 1           6             9    1     1      -0.9946198219E-02       9    1    1      -0.6335895957E+01      0.1858582901E+02      0.1458426980E+00     -0.9946198219E-02
          0                 2           5             9    1     1       0.8798822880E-03       9    1    1       0.6482658349E+00      0.1852616612E+01      0.1858582901E+02      0.8798822880E-03
          0                 3           3             9    1     1       0.3638588675E-04       1    9    1      -0.3423248674E-01      0.9118997817E-01      0.1852616612E+01      0.3638588675E-04

    ------------------------------------------------
       NWT REQUIRED            3 OUTER ITERATIONS 
       AND A TOTAL OF         14 INNER ITERATIONS.
    ------------------------------------------------
                                                   Max.-Head-Change                        Max.-Flux-Residual
  Residual-Control   Outer-Iter.   Inner-Iter.     Column Row Layer    Max.-Head-Change    Column Row Layer    Max.-Flux-Residual            L2-New               L2-Old           Solver-Max-Delh
          0                 1           6             9    1     1      -0.4908311708E-02       1    9    1       0.3848001779E+01      0.9374510659E+01      0.9118997817E-01     -0.4908311708E-02
          0                 2           5             9    1     1       0.4271421336E-03       1    9    1      -0.3753383100E+00      0.9262384037E+00      0.9374510659E+01      0.4271421336E-03
          0                 3           3             9    1     1       0.2410748950E-04       1    9    1      -0.2292894584E-01      0.5145729186E-01      0.9262384037E+00      0.2410748950E-04

    ------------------------------------------------
       NWT REQUIRED            3 OUTER ITERATIONS 
       AND A TOTAL OF         14 INNER ITERATIONS.
    ------------------------------------------------
                                                   Max.-Head-Change                        Max.-Flux-Residual
  Residual-Control   Outer-Iter.   Inner-Iter.     Column Row Layer    Max.-Head-Change    Column Row Layer    Max.-Flux-Residual            L2-New               L2-Old           Solver-Max-Delh
          0                 1           5             1    9     1       0.2225738341E-02       1    9    1       0.2059984427E+01      0.4340804016E+01      0.5145729186E-01      0.2225738341E-02
          0                 2           4             1    9     1      -0.1887522945E-03       1    9    1      -0.2020450593E+00      0.4310668341E+00      0.4340804016E+01     -0.1887522945E-03
          0                 3           2             1    8     1      -0.1058270756E-04       8    1    1       0.1136503078E-01      0.3039162749E-01      0.4310668341E+00     -0.1058270756E-04

    ------------------------------------------------
       NWT REQUIRED            3 OUTER ITERATIONS 
       AND A TOTAL OF         11 INNER ITERATIONS.
    ------------------------------------------------
                                                   Max.-Head-Change                        Max.-Flux-Residual
  Residual-Control   Outer-Iter.   Inner-Iter.     Column Row Layer    Max.-Head-Change    Column Row Layer    Max.-Flux-Residual            L2-New               L2-Old           Solver-Max-Delh
          0                 1           5             1    9     1       0.1036030911E-02       1    9    1       0.9788019388E+00      0.2198019767E+01      0.3039162749E-01      0.1036030911E-02
          0                 2           4             3    1     2      -0.8762512684E-04       1    9    1      -0.9739906376E-01      0.2159829787E+00      0.2198019767E+01     -0.8762512684E-04

    ------------------------------------------------
       NWT REQUIRED            2 OUTER ITERATIONS 
       AND A TOTAL OF          9 INNER ITERATIONS.
    ------------------------------------------------
                                                   Max.-Head-Change                        Max.-Flux-Residual
  Residual-Control   Outer-Iter.   Inner-Iter.     Column Row Layer    Max.-Head-Change    Column Row Layer    Max.-Flux-Residual            L2-New               L2-Old           Solver-Max-Delh
          0                 1           5             5    1     2       0.6767679350E-03       1    9    1       0.4153322126E+00      0.1163040108E+01      0.2159829787E+00      0.6767679350E-03
          0                 2           4             5    1     2      -0.5841758191E-04       1    9    1      -0.4277041601E-01      0.1147281437E+00      0.1163040108E+01     -0.5841758191E-04

    ------------------------------------------------
       NWT REQUIRED            2 OUTER ITERATIONS 
       AND A TOTAL OF          9 INNER ITERATIONS.
    ------------------------------------------------
                                                   Max.-Head-Change                        Max.-Flux-Residual
  Residual-Control   Outer-Iter.   Inner-Iter.     Column Row Layer    Max.-Head-Change    Column Row Layer    Max.-Flux-Residual            L2-New               L2-Old           Solver-Max-Delh
          0                 1           5             5    1     2       0.3659165243E-03       5    1    1       0.1937883147E+00      0.5577921685E+00      0.1147281437E+00      0.3659165243E-03
          0                 2           3             5    1     2      -0.3176042348E-04       5    1    1      -0.2278802951E-01      0.5904319108E-01      0.5577921685E+00     -0.3176042348E-04

    ------------------------------------------------
       NWT REQUIRED            2 OUTER ITERATIONS 
       AND A TOTAL OF          8 INNER ITERATIONS.
    ------------------------------------------------
                                                   Max.-Head-Change                        Max.-Flux-Residual
  Residual-Control   Outer-Iter.   Inner-Iter.     Column Row Layer    Max.-Head-Change    Column Row Layer    Max.-Flux-Residual            L2-New               L2-Old           Solver-Max-Delh
          0                 1           4             9    1     2       0.1645659006E-03       1    1    1       0.1006796698E+00      0.2489681322E+00      0.5904319108E-01      0.1645659006E-03
          0                 2           3             8    1     2      -0.1295628145E-04       3    1    1      -0.1161415037E-01      0.2695298898E-01      0.2489681322E+00     -0.1295628145E-04

    ------------------------------------------------
       NWT REQUIRED            2 OUTER ITERATIONS 
       AND A TOTAL OF          7 INNER ITERATIONS.
    ------------------------------------------------

 OUTPUT CONTROL FOR STRESS PERIOD     18   TIME STEP     1
    SAVE BUDGET
 UBDSV1 SAVING "         STORAGE" ON UNIT7011 AT TIME STEP    1, STRESS PERIOD  18
 UBDSV2 SAVING "   CONSTANT HEAD" ON UNIT7011 AT TIME STEP    1, STRESS PERIOD  18
 UBDSV1 SAVING "FLOW RIGHT FACE " ON UNIT7011 AT TIME STEP    1, STRESS PERIOD  18
 UBDSV1 SAVING "FLOW FRONT FACE " ON UNIT7011 AT TIME STEP    1, STRESS PERIOD  18
 UBDSV1 SAVING "FLOW LOWER FACE " ON UNIT7011 AT TIME STEP    1, STRESS PERIOD  18
 
 
 
 
 
 
 
 
 UBDSV3 SAVING "FARM  NET  RECH." ON UNIT7011 AT TIME STEP    1, STRESS PERIOD  18
 UBDSV4 SAVING " GHOST-NODE HEAD" ON UNIT7011 AT TIME STEP    1, STRESS PERIOD  18
1
  FLUX ACROSS PARENT-CHILD INTERFACE AT TIME STEP  1 IN STRESS PERIOD   18
  ------------------------------------------------------------------------
 G-N FLUX        PARENT        CHILD         DIFFERENCE      % DIFFERENCE
  RATE IN:      5.9111E+03    5.9110E+03     1.2158E-01        0.0021
 RATE OUT:      2.0845E+03    2.0842E+03     2.8540E-01        0.0137
 
 SOLVING FOR HEAD 
                                                   Max.-Head-Change                        Max.-Flux-Residual
  Residual-Control   Outer-Iter.   Inner-Iter.     Column Row Layer    Max.-Head-Change    Column Row Layer    Max.-Flux-Residual            L2-New               L2-Old           Solver-Max-Delh
          0                 1           9             8    8     1      -0.1189104418E+01       8    8    1      -0.1282320744E+04      0.1844478745E+04      0.2695298898E-01     -0.1189104418E+01
          0                 2           8             8    8     1       0.9683835966E-01       2    8    1       0.1176286566E+03      0.1683575647E+03      0.1844478745E+04      0.9683835966E-01
          0                 3           6             8    8     1       0.4921511243E-02       2    8    1       0.5811620859E+01      0.8358632424E+01      0.1683575647E+03      0.4921511243E-02
          0                 4           4             8    8     1       0.2531050257E-03       2    8    1       0.2903528329E+00      0.4204380892E+00      0.8358632424E+01      0.2531050257E-03
          0                 5           3             8    8     1       0.1576919401E-04       2    8    1       0.1449990174E-01      0.2701143813E-01      0.4204380892E+00      0.1576919401E-04

    ------------------------------------------------
       NWT REQUIRED            5 OUTER ITERATIONS 
       AND A TOTAL OF         30 INNER ITERATIONS.
    ------------------------------------------------
                                                   Max.-Head-Change                        Max.-Flux-Residual
  Residual-Control   Outer-Iter.   Inner-Iter.     Column Row Layer    Max.-Head-Change    Column Row Layer    Max.-Flux-Residual            L2-New               L2-Old           Solver-Max-Delh
          0                 1           9             8    8     1       0.9030603284E+00       8    8    1       0.1260674740E+04      0.1804357192E+04      0.2701143813E-01      0.9030603284E+00
          0                 2           8             8    8     1      -0.7991755560E-01       8    8    1      -0.1340757632E+03      0.1897573444E+03      0.1804357192E+04     -0.7991755560E-01
          0                 3           6             8    8     1      -0.4065209911E-02       8    8    1      -0.6766508034E+01      0.9547191180E+01      0.1897573444E+03     -0.4065209911E-02
          0                 4           4             8    8     1      -0.2038178540E-03       8    8    1      -0.3384242725E+00      0.4777292383E+00      0.9547191180E+01     -0.2038178540E-03
          0                 5           2             8    8     1      -0.1186560945E-04       8    8    1      -0.1695087180E-01      0.2748106631E-01      0.4777292383E+00     -0.1186560945E-04

    ------------------------------------------------
       NWT REQUIRED            5 OUTER ITERATIONS 
       AND A TOTAL OF         29 INNER ITERATIONS.
    ------------------------------------------------
                                                   Max.-Head-Change                        Max.-Flux-Residual
  Residual-Control   Outer-Iter.   Inner-Iter.     Column Row Layer    Max.-Head-Change    Column Row Layer    Max.-Flux-Residual            L2-New               L2-Old           Solver-Max-Delh
          0                 1           8             1    9     3      -0.4209544760E-01       1    9    1      -0.3104351983E+02      0.7538767675E+02      0.2748106631E-01     -0.4209544760E-01
          0                 2           6             1    9     3       0.3632412050E-02       1    9    1       0.3037788306E+01      0.7446883972E+01      0.7538767675E+02      0.3632412050E-02
          0                 3           4             1    9     3       0.1830983887E-03       1    9    1       0.1535372010E+00      0.3802101857E+00      0.7446883972E+01      0.1830983887E-03
          0                 4           3             1    3     1       0.1005459958E-04       9    1    1       0.7497768500E-02      0.2552206602E-01      0.3802101857E+00      0.1005459958E-04

    ------------------------------------------------
       NWT REQUIRED            4 OUTER ITERATIONS 
       AND A TOTAL OF         21 INNER ITERATIONS.
    ------------------------------------------------
                                                   Max.-Head-Change                        Max.-Flux-Residual
  Residual-Control   Outer-Iter.   Inner-Iter.     Column Row Layer    Max.-Head-Change    Column Row Layer    Max.-Flux-Residual            L2-New               L2-Old           Solver-Max-Delh
          0                 1           6             1    1     3      -0.1547901860E-01       1    1    1      -0.8795888484E+01      0.1969131154E+02      0.2552206602E-01     -0.1547901860E-01
          0                 2           5             1    1     3       0.1338525760E-02       1    1    1       0.8839710271E+00      0.1967610573E+01      0.1969131154E+02      0.1338525760E-02
          0                 3           3             1    1     3       0.6587186367E-04       1    1    1       0.4727360280E-01      0.9837506521E-01      0.1967610573E+01      0.6587186367E-04

    ------------------------------------------------
       NWT REQUIRED            3 OUTER ITERATIONS 
       AND A TOTAL OF         14 INNER ITERATIONS.
    ------------------------------------------------
                                                   Max.-Head-Change                        Max.-Flux-Residual
  Residual-Control   Outer-Iter.   Inner-Iter.     Column Row Layer    Max.-Head-Change    Column Row Layer    Max.-Flux-Residual            L2-New               L2-Old           Solver-Max-Delh
          0                 1           7             9    9     1       0.1049346915E-01       1    9    1       0.8630788246E+01      0.1961726556E+02      0.9837506521E-01      0.1049346915E-01
          0                 2           5             9    9     1      -0.8795093752E-03       1    9    1      -0.8497332149E+00      0.1915645276E+01      0.1961726556E+02     -0.8795093752E-03
          0                 3           4             9    9     1      -0.4435826092E-04       1    9    1      -0.4251025204E-01      0.1008789027E+00      0.1915645276E+01     -0.4435826092E-04

    ------------------------------------------------
       NWT REQUIRED            3 OUTER ITERATIONS 
       AND A TOTAL OF         16 INNER ITERATIONS.
    ------------------------------------------------
                                                   Max.-Head-Change                        Max.-Flux-Residual
  Residual-Control   Outer-Iter.   Inner-Iter.     Column Row Layer    Max.-Head-Change    Column Row Layer    Max.-Flux-Residual            L2-New               L2-Old           Solver-Max-Delh
          0                 1           7             1    9     1       0.8446367134E-02       1    9    1       0.7485520654E+01      0.1435104624E+02      0.1008789027E+00      0.8446367134E-02
          0                 2           5             1    9     1      -0.7170968872E-03       1    9    1      -0.7410702438E+00      0.1409828962E+01      0.1435104624E+02     -0.7170968872E-03
          0                 3           3             1    9     1      -0.3355750693E-04       1    9    1      -0.3215588484E-01      0.7157004038E-01      0.1409828962E+01     -0.3355750693E-04

    ------------------------------------------------
       NWT REQUIRED            3 OUTER ITERATIONS 
       AND A TOTAL OF         15 INNER ITERATIONS.
    ------------------------------------------------
                                                   Max.-Head-Change                        Max.-Flux-Residual
  Residual-Control   Outer-Iter.   Inner-Iter.     Column Row Layer    Max.-Head-Change    Column Row Layer    Max.-Flux-Residual            L2-New               L2-Old           Solver-Max-Delh
          0                 1           6             1    9     1       0.5272197290E-02       1    9    1       0.4735649849E+01      0.8509948655E+01      0.7157004038E-01      0.5272197290E-02
          0                 2           5             1    9     1      -0.4460966105E-03       1    9    1      -0.4655979117E+00      0.8373041678E+00      0.8509948655E+01     -0.4460966105E-03
          0                 3           3             1    9     1      -0.2226021519E-04       1    9    1      -0.2236940875E-01      0.4326320909E-01      0.8373041678E+00     -0.2226021519E-04

    ------------------------------------------------
       NWT REQUIRED            3 OUTER ITERATIONS 
       AND A TOTAL OF         14 INNER ITERATIONS.
    ------------------------------------------------
                                                   Max.-Head-Change                        Max.-Flux-Residual
  Residual-Control   Outer-Iter.   Inner-Iter.     Column Row Layer    Max.-Head-Change    Column Row Layer    Max.-Flux-Residual            L2-New               L2-Old           Solver-Max-Delh
          0                 1           6             1    9     1       0.2792478748E-02       1    9    1       0.2542096052E+01      0.4700411785E+01      0.4326320909E-01      0.2792478748E-02
          0                 2           4             1    9     1      -0.2371432023E-03       1    9    1      -0.2505898352E+00      0.4647964622E+00      0.4700411785E+01     -0.2371432023E-03
          0                 3           3             1    9     1      -0.1456941773E-04       1    9    1      -0.1815648424E-01      0.3158123759E-01      0.4647964622E+00     -0.1456941773E-04

    ------------------------------------------------
       NWT REQUIRED            3 OUTER ITERATIONS 
       AND A TOTAL OF         13 INNER ITERATIONS.
    ------------------------------------------------
                                                   Max.-Head-Change                        Max.-Flux-Residual
  Residual-Control   Outer-Iter.   Inner-Iter.     Column Row Layer    Max.-Head-Change    Column Row Layer    Max.-Flux-Residual            L2-New               L2-Old           Solver-Max-Delh
          0                 1           5             1    9     1       0.1317720807E-02       1    9    1       0.1214314060E+01      0.2459513800E+01      0.3158123759E-01      0.1317720807E-02
          0                 2           4             1    9     1      -0.1151055256E-03       1    9    1      -0.1250669858E+00      0.2452252348E+00      0.2459513800E+01     -0.1151055256E-03
          0                 3           2             1    4     1      -0.8152304770E-05       3    1    1      -0.7998136571E-02      0.2192299766E-01      0.2452252348E+00     -0.8152304770E-05

    ------------------------------------------------
       NWT REQUIRED            3 OUTER ITERATIONS 
       AND A TOTAL OF         11 INNER ITERATIONS.
    ------------------------------------------------
                                                   Max.-Head-Change                        Max.-Flux-Residual
  Residual-Control   Outer-Iter.   Inner-Iter.     Column Row Layer    Max.-Head-Change    Column Row Layer    Max.-Flux-Residual            L2-New               L2-Old           Solver-Max-Delh
          0                 1           5             1    9     1       0.5670764513E-03       1    9    1       0.5239699357E+00      0.1178964679E+01      0.2192299766E-01      0.5670764513E-03
          0                 2           4             1    9     1      -0.4590515800E-04       1    9    1      -0.4931758251E-01      0.1174609397E+00      0.1178964679E+01     -0.4590515800E-04

    ------------------------------------------------
       NWT REQUIRED            2 OUTER ITERATIONS 
       AND A TOTAL OF          9 INNER ITERATIONS.
    ------------------------------------------------
                                                   Max.-Head-Change                        Max.-Flux-Residual
  Residual-Control   Outer-Iter.   Inner-Iter.     Column Row Layer    Max.-Head-Change    Column Row Layer    Max.-Flux-Residual            L2-New               L2-Old           Solver-Max-Delh
          0                 1           4             3    1     2       0.2200965352E-03       1    9    1       0.2226006791E+00      0.4757723434E+00      0.1174609397E+00      0.2200965352E-03
          0                 2           3             1    1     1      -0.1993613015E-04       1    1    1      -0.2316663461E-01      0.5617887449E-01      0.4757723434E+00     -0.1993613015E-04

    ------------------------------------------------
       NWT REQUIRED            2 OUTER ITERATIONS 
       AND A TOTAL OF          7 INNER ITERATIONS.
    ------------------------------------------------
                                                   Max.-Head-Change                        Max.-Flux-Residual
  Residual-Control   Outer-Iter.   Inner-Iter.     Column Row Layer    Max.-Head-Change    Column Row Layer    Max.-Flux-Residual            L2-New               L2-Old           Solver-Max-Delh
          0                 1           4             9    9     3       0.1045667756E-03       1    1    1       0.8040549501E-01      0.1687879572E+00      0.5617887449E-01      0.1045667756E-03
          0                 2           2             1    1     1      -0.1036300068E-04       1    1    1      -0.1409043686E-01      0.2658556521E-01      0.1687879572E+00     -0.1036300068E-04

    ------------------------------------------------
       NWT REQUIRED            2 OUTER ITERATIONS 
       AND A TOTAL OF          6 INNER ITERATIONS.
    ------------------------------------------------

 OUTPUT CONTROL FOR STRESS PERIOD     18   TIME STEP     2
    PRINT BUDGET
    SAVE HEAD FOR ALL LAYERS
    SAVE BUDGET
 UBDSV1 SAVING "         STORAGE" ON UNIT7011 AT TIME STEP    2, STRESS PERIOD  18
 UBDSV2 SAVING "   CONSTANT HEAD" ON UNIT7011 AT TIME STEP    2, STRESS PERIOD  18
 UBDSV1 SAVING "FLOW RIGHT FACE " ON UNIT7011 AT TIME STEP    2, STRESS PERIOD  18
 UBDSV1 SAVING "FLOW FRONT FACE " ON UNIT7011 AT TIME STEP    2, STRESS PERIOD  18
 UBDSV1 SAVING "FLOW LOWER FACE " ON UNIT7011 AT TIME STEP    2, STRESS PERIOD  18
 
 
 
 
 
 
 
 
 UBDSV3 SAVING "FARM  NET  RECH." ON UNIT7011 AT TIME STEP    2, STRESS PERIOD  18
 UBDSV4 SAVING " GHOST-NODE HEAD" ON UNIT7011 AT TIME STEP    2, STRESS PERIOD  18

 HEAD WILL BE SAVED ON UNIT 2211 AT END OF TIME STEP     2, STRESS PERIOD     18
1
  VOLUMETRIC BUDGET FOR ENTIRE MODEL AT END OF TIME STEP    2 IN STRESS PERIOD     18
  ------------------------------------------------------------------------------

     CUMULATIVE VOLUMES      L**3       RATES FOR THIS TIME STEP      L**3/T
     ------------------                 ------------------------

           IN:                                      IN:
           ---                                      ---
             STORAGE =      241612.9375               STORAGE =         819.1945
       CONSTANT HEAD =           0.0000         CONSTANT HEAD =           0.0000
          FARM WELLS =           0.0000            FARM WELLS =           0.0000
    FARM  NET  RECH. =     1291477.2500      FARM  NET  RECH. =        2649.5540
     GHOST-NODE HEAD =     5111981.0000       GHOST-NODE HEAD =        5900.1035

            TOTAL IN =     6645071.0000              TOTAL IN =        9368.8516

          OUT:                                     OUT:
          ----                                     ----
             STORAGE =     3810058.5000               STORAGE =           0.0000
       CONSTANT HEAD =           0.0000         CONSTANT HEAD =           0.0000
          FARM WELLS =     1741773.5000            FARM WELLS =        7435.6328
    FARM  NET  RECH. =           0.0000      FARM  NET  RECH. =           0.0000
     GHOST-NODE HEAD =     1093237.0000       GHOST-NODE HEAD =        1933.2289

           TOTAL OUT =     6645069.0000             TOTAL OUT =        9368.8613

            IN - OUT =           2.0000              IN - OUT =      -9.7656E-03

 PERCENT DISCREPANCY =           0.00     PERCENT DISCREPANCY =          -0.00






          TIME SUMMARY AT END OF TIME STEP     2 IN STRESS PERIOD     18
                    SECONDS     MINUTES      HOURS       DAYS        YEARS
                    -----------------------------------------------------------
   TIME STEP LENGTH 1.31414E+06  21902.      365.04      15.210     4.16427E-02
 STRESS PERIOD TIME 2.62829E+06  43805.      730.08      30.420     8.32854E-02
         TOTAL TIME 4.73092E+07 7.88486E+05  13141.      547.56      1.4991    
1
1
  FLUX ACROSS PARENT-CHILD INTERFACE AT TIME STEP  2 IN STRESS PERIOD   18
  ------------------------------------------------------------------------
 G-N FLUX        PARENT        CHILD         DIFFERENCE      % DIFFERENCE
  RATE IN:      5.9002E+03    5.9001E+03     8.1055E-02        0.0014
 RATE OUT:      1.9335E+03    1.9332E+03     2.9175E-01        0.0151
1
                            STRESS PERIOD NO.     19, LENGTH =   30.42000    
                            -----------------------------------------------

                              NUMBER OF TIME STEPS =     2

                               MULTIPLIER FOR DELT =     1.000

                            INITIAL TIME STEP SIZE =   15.21000    

 Parameter:  WELLS1
 WELL NO. LAYER    ROW    COL  F-WELL ID    FARM ID         QMAX         QMAXRESET       LGRGRID         
 --------------------------------------------------------------------------------------------------------
       1      1      8      2          2          1      5.0000E+03              0              0
       2      1      8      8          3          1      5.0000E+03              0              0

 NUMBER OF ACTIVE FARM WELLS:        2

 FARM-ID  NUMBER OF WELLS PER FARM  TOTAL MAX.CAPACITY PER FARM
       1                         2                   10000.0000
       2                         0                       0.0000
       3                         0                       0.0000
       4                         0                       0.0000
       5                         0                       0.0000
       6                         0                       0.0000
       7                         0                       0.0000
       8                         0                       0.0000

Transpiratory and Evaporative Fractions of Crop Consumptive Use
    % Transpiration % Evap. for Precip. % Evap. for Irrig.
    2          0.950          0.050          0.050
    3          0.000          1.000          1.000

FRACTIONS OF IN-EFFICIENT LOSSES TO SW-RUNOFF FROM 
     PRECIPITATION:  IRRIGATION:
    2          0.400          0.300
    3          0.600          0.500
 
 SOLVING FOR HEAD 
                                                   Max.-Head-Change                        Max.-Flux-Residual
  Residual-Control   Outer-Iter.   Inner-Iter.     Column Row Layer    Max.-Head-Change    Column Row Layer    Max.-Flux-Residual            L2-New               L2-Old           Solver-Max-Delh
          0                 1           9             8    8     1      -0.1173174077E+01       2    8    1      -0.1292742716E+04      0.1864373270E+04      0.2658556521E-01     -0.1173174077E+01
          0                 2           8             8    8     1       0.9562252963E-01       2    8    1       0.1187158190E+03      0.1704372703E+03      0.1864373270E+04      0.9562252963E-01
          0                 3           6             8    8     1       0.4859973564E-02       2    8    1       0.5864958177E+01      0.8459594437E+01      0.1704372703E+03      0.4859973564E-02
          0                 4           4             8    8     1       0.2497599196E-03       2    8    1       0.2930627866E+00      0.4250823547E+00      0.8459594437E+01      0.2497599196E-03
          0                 5           3             2    8     1       0.1518515206E-04       2    8    1       0.1460706315E-01      0.2968271553E-01      0.4250823547E+00      0.1518515206E-04

    ------------------------------------------------
       NWT REQUIRED            5 OUTER ITERATIONS 
       AND A TOTAL OF         30 INNER ITERATIONS.
    ------------------------------------------------
                                                   Max.-Head-Change                        Max.-Flux-Residual
  Residual-Control   Outer-Iter.   Inner-Iter.     Column Row Layer    Max.-Head-Change    Column Row Layer    Max.-Flux-Residual            L2-New               L2-Old           Solver-Max-Delh
          0                 1           9             8    8     1       0.1061007120E+01       8    8    1       0.1583161669E+04      0.2282404030E+04      0.2968271553E-01      0.1061007120E+01
          0                 2           8             8    8     1      -0.8949071796E-01       8    8    1      -0.1620287555E+03      0.2312493475E+03      0.2282404030E+04     -0.8949071796E-01
          0                 3           6             8    8     1      -0.4537444745E-02       8    8    1      -0.8178903687E+01      0.1164214658E+02      0.2312493475E+03     -0.4537444745E-02
          0                 4           4             8    8     1      -0.2311390720E-03       8    8    1      -0.4090836267E+00      0.5808987903E+00      0.1164214658E+02     -0.2311390720E-03
          0                 5           2             2    8     1      -0.1066670508E-04       8    8    1      -0.2042582893E-01      0.3103704732E-01      0.5808987903E+00     -0.1066670508E-04

    ------------------------------------------------
       NWT REQUIRED            5 OUTER ITERATIONS 
       AND A TOTAL OF         29 INNER ITERATIONS.
    ------------------------------------------------
                                                   Max.-Head-Change                        Max.-Flux-Residual
  Residual-Control   Outer-Iter.   Inner-Iter.     Column Row Layer    Max.-Head-Change    Column Row Layer    Max.-Flux-Residual            L2-New               L2-Old           Solver-Max-Delh
          0                 1           8             1    9     2      -0.3788758960E-01       1    9    1      -0.3136183651E+02      0.7721346849E+02      0.3103704732E-01     -0.3788758960E-01
          0                 2           6             1    9     2       0.3261846562E-02       1    9    1       0.3073899360E+01      0.7650648784E+01      0.7721346849E+02      0.3261846562E-02
          0                 3           4             1    9     2       0.1637025332E-03       1    9    1       0.1575125789E+00      0.3887674255E+00      0.7650648784E+01      0.1637025332E-03
          0                 4           3             9    1     1       0.1312782316E-04       9    1    1       0.8885459101E-02      0.2824546641E-01      0.3887674255E+00      0.1312782316E-04

    ------------------------------------------------
       NWT REQUIRED            4 OUTER ITERATIONS 
       AND A TOTAL OF         21 INNER ITERATIONS.
    ------------------------------------------------
                                                   Max.-Head-Change                        Max.-Flux-Residual
  Residual-Control   Outer-Iter.   Inner-Iter.     Column Row Layer    Max.-Head-Change    Column Row Layer    Max.-Flux-Residual            L2-New               L2-Old           Solver-Max-Delh
          0                 1           8             9    9     1       0.4390817325E-01       8    9    1       0.2642597065E+02      0.5837186877E+02      0.2824546641E-01      0.4390817325E-01
          0                 2           6             9    9     1      -0.3705968055E-02       7    9    1      -0.2586479630E+01      0.5725898922E+01      0.5837186877E+02     -0.3705968055E-02
          0                 3           4             9    9     1      -0.1906332983E-03       8    9    1      -0.1344502491E+00      0.2966881196E+00      0.5725898922E+01     -0.1906332983E-03
          0                 4           2             8    9     1      -0.1058468231E-04       8    9    1      -0.8581610047E-02      0.2221059557E-01      0.2966881196E+00     -0.1058468231E-04

    ------------------------------------------------
       NWT REQUIRED            4 OUTER ITERATIONS 
       AND A TOTAL OF         20 INNER ITERATIONS.
    ------------------------------------------------
                                                   Max.-Head-Change                        Max.-Flux-Residual
  Residual-Control   Outer-Iter.   Inner-Iter.     Column Row Layer    Max.-Head-Change    Column Row Layer    Max.-Flux-Residual            L2-New               L2-Old           Solver-Max-Delh
          0                 1           8             9    9     1       0.3676644753E-01       8    9    1       0.2097665901E+02      0.5450084096E+02      0.2221059557E-01      0.3676644753E-01
          0                 2           6             9    9     1      -0.3100167783E-02       7    9    1      -0.2062670678E+01      0.5336737748E+01      0.5450084096E+02     -0.3100167783E-02
          0                 3           4             9    9     1      -0.1639930888E-03       8    9    1      -0.1104463467E+00      0.2780218730E+00      0.5336737748E+01     -0.1639930888E-03
          0                 4           2             1    6     1      -0.6863106023E-05       7    9    1      -0.7794295321E-02      0.1729747031E-01      0.2780218730E+00     -0.6863106023E-05

    ------------------------------------------------
       NWT REQUIRED            4 OUTER ITERATIONS 
       AND A TOTAL OF         20 INNER ITERATIONS.
    ------------------------------------------------
                                                   Max.-Head-Change                        Max.-Flux-Residual
  Residual-Control   Outer-Iter.   Inner-Iter.     Column Row Layer    Max.-Head-Change    Column Row Layer    Max.-Flux-Residual            L2-New               L2-Old           Solver-Max-Delh
          0                 1           7             1    9     1       0.1655341829E-01       1    9    1       0.1430745899E+02      0.3114776462E+02      0.1729747031E-01      0.1655341829E-01
          0                 2           5             1    9     1      -0.1396822252E-02       1    9    1      -0.1395988699E+01      0.3049279601E+01      0.3114776462E+02     -0.1396822252E-02
          0                 3           4             1    9     1      -0.7446124727E-04       1    9    1      -0.7645707735E-01      0.1597795077E+00      0.3049279601E+01     -0.7446124727E-04

    ------------------------------------------------
       NWT REQUIRED            3 OUTER ITERATIONS 
       AND A TOTAL OF         16 INNER ITERATIONS.
    ------------------------------------------------
                                                   Max.-Head-Change                        Max.-Flux-Residual
  Residual-Control   Outer-Iter.   Inner-Iter.     Column Row Layer    Max.-Head-Change    Column Row Layer    Max.-Flux-Residual            L2-New               L2-Old           Solver-Max-Delh
          0                 1           7             1    9     1       0.9106001805E-02       1    9    1       0.8086455232E+01      0.1502401436E+02      0.1597795077E+00      0.9106001805E-02
          0                 2           5             1    9     1      -0.7717172152E-03       1    9    1      -0.7913139371E+00      0.1480417931E+01      0.1502401436E+02     -0.7717172152E-03
          0                 3           3             1    9     1      -0.3658492563E-04       1    9    1      -0.3577518428E-01      0.7534114436E-01      0.1480417931E+01     -0.3658492563E-04

    ------------------------------------------------
       NWT REQUIRED            3 OUTER ITERATIONS 
       AND A TOTAL OF         15 INNER ITERATIONS.
    ------------------------------------------------
                                                   Max.-Head-Change                        Max.-Flux-Residual
  Residual-Control   Outer-Iter.   Inner-Iter.     Column Row Layer    Max.-Head-Change    Column Row Layer    Max.-Flux-Residual            L2-New               L2-Old           Solver-Max-Delh
          0                 1           6             1    9     1       0.4349646238E-02       1    9    1       0.3969192133E+01      0.7732364114E+01      0.7534114436E-01      0.4349646238E-02
          0                 2           5             1    9     1      -0.3671298230E-03       1    9    1      -0.3884321246E+00      0.7639643465E+00      0.7732364114E+01     -0.3671298230E-03
          0                 3           3             1    9     1      -0.2359380704E-04       1    9    1      -0.2320809575E-01      0.4811796675E-01      0.7639643465E+00     -0.2359380704E-04

    ------------------------------------------------
       NWT REQUIRED            3 OUTER ITERATIONS 
       AND A TOTAL OF         14 INNER ITERATIONS.
    ------------------------------------------------
                                                   Max.-Head-Change                        Max.-Flux-Residual
  Residual-Control   Outer-Iter.   Inner-Iter.     Column Row Layer    Max.-Head-Change    Column Row Layer    Max.-Flux-Residual            L2-New               L2-Old           Solver-Max-Delh
          0                 1           6             1    9     1       0.1918456144E-02       1    9    1       0.1792514374E+01      0.4066967890E+01      0.4811796675E-01      0.1918456144E-02
          0                 2           4             1    9     1      -0.1639008441E-03       1    9    1      -0.1794021454E+00      0.4083701332E+00      0.4066967890E+01     -0.1639008441E-03
          0                 3           2             9    9     1       0.8920360528E-05       1    1    1      -0.1330005727E-01      0.2426810044E-01      0.4083701332E+00      0.8920360528E-05

    ------------------------------------------------
       NWT REQUIRED            3 OUTER ITERATIONS 
       AND A TOTAL OF         12 INNER ITERATIONS.
    ------------------------------------------------
                                                   Max.-Head-Change                        Max.-Flux-Residual
  Residual-Control   Outer-Iter.   Inner-Iter.     Column Row Layer    Max.-Head-Change    Column Row Layer    Max.-Flux-Residual            L2-New               L2-Old           Solver-Max-Delh
          0                 1           5             1    9     1       0.8082044785E-03       1    9    1       0.7625403627E+00      0.1801289072E+01      0.2426810044E-01      0.8082044785E-03
          0                 2           4             1    9     1      -0.7300599593E-04       1    9    1      -0.8088469884E-01      0.1799216012E+00      0.1801289072E+01     -0.7300599593E-04

    ------------------------------------------------
       NWT REQUIRED            2 OUTER ITERATIONS 
       AND A TOTAL OF          9 INNER ITERATIONS.
    ------------------------------------------------
                                                   Max.-Head-Change                        Max.-Flux-Residual
  Residual-Control   Outer-Iter.   Inner-Iter.     Column Row Layer    Max.-Head-Change    Column Row Layer    Max.-Flux-Residual            L2-New               L2-Old           Solver-Max-Delh
          0                 1           5             1    9     1       0.3030711806E-03       1    9    1       0.2834443144E+00      0.6099054551E+00      0.1799216012E+00      0.3030711806E-03
          0                 2           3             1    9     1      -0.2829309409E-04       1    9    1      -0.3397228691E-01      0.6536114402E-01      0.6099054551E+00     -0.2829309409E-04

    ------------------------------------------------
       NWT REQUIRED            2 OUTER ITERATIONS 
       AND A TOTAL OF          8 INNER ITERATIONS.
    ------------------------------------------------

 OUTPUT CONTROL FOR STRESS PERIOD     19   TIME STEP     1
    SAVE BUDGET
 UBDSV1 SAVING "         STORAGE" ON UNIT7011 AT TIME STEP    1, STRESS PERIOD  19
 UBDSV2 SAVING "   CONSTANT HEAD" ON UNIT7011 AT TIME STEP    1, STRESS PERIOD  19
 UBDSV1 SAVING "FLOW RIGHT FACE " ON UNIT7011 AT TIME STEP    1, STRESS PERIOD  19
 UBDSV1 SAVING "FLOW FRONT FACE " ON UNIT7011 AT TIME STEP    1, STRESS PERIOD  19
 UBDSV1 SAVING "FLOW LOWER FACE " ON UNIT7011 AT TIME STEP    1, STRESS PERIOD  19
 
 
 
 
 
 
 
 
 UBDSV3 SAVING "FARM  NET  RECH." ON UNIT7011 AT TIME STEP    1, STRESS PERIOD  19
 UBDSV4 SAVING " GHOST-NODE HEAD" ON UNIT7011 AT TIME STEP    1, STRESS PERIOD  19
1
  FLUX ACROSS PARENT-CHILD INTERFACE AT TIME STEP  1 IN STRESS PERIOD   19
  ------------------------------------------------------------------------
 G-N FLUX        PARENT        CHILD         DIFFERENCE      % DIFFERENCE
  RATE IN:      5.3207E+03    5.3209E+03    -2.4707E-01       -0.0046
 RATE OUT:      1.9273E+03    1.9266E+03     7.2510E-01        0.0376
 
 SOLVING FOR HEAD 
                                                   Max.-Head-Change                        Max.-Flux-Residual
  Residual-Control   Outer-Iter.   Inner-Iter.     Column Row Layer    Max.-Head-Change    Column Row Layer    Max.-Flux-Residual            L2-New               L2-Old           Solver-Max-Delh
          0                 1           9             8    8     1      -0.1328736527E+01       2    8    1      -0.1595411819E+04      0.2269525384E+04      0.6536114402E-01     -0.1328736527E+01
          0                 2           8             8    8     1       0.1077891931E+00       2    8    1       0.1460130721E+03      0.2057821284E+03      0.2269525384E+04      0.1077891931E+00
          0                 3           6             8    8     1       0.5460280612E-02       2    8    1       0.7210190116E+01      0.1016452795E+02      0.2057821284E+03      0.5460280612E-02
          0                 4           4             8    8     1       0.2782512057E-03       2    8    1       0.3603025913E+00      0.5090994466E+00      0.1016452795E+02      0.2782512057E-03
          0                 5           3             8    8     1       0.1611986231E-04       2    8    1       0.1795176329E-01      0.3139420244E-01      0.5090994466E+00      0.1611986231E-04

    ------------------------------------------------
       NWT REQUIRED            5 OUTER ITERATIONS 
       AND A TOTAL OF         30 INNER ITERATIONS.
    ------------------------------------------------
                                                   Max.-Head-Change                        Max.-Flux-Residual
  Residual-Control   Outer-Iter.   Inner-Iter.     Column Row Layer    Max.-Head-Change    Column Row Layer    Max.-Flux-Residual            L2-New               L2-Old           Solver-Max-Delh
          0                 1           9             8    8     1       0.1048920353E+01       2    8    1       0.1590400250E+04      0.2295574697E+04      0.3139420244E-01      0.1048920353E+01
          0                 2           8             8    8     1      -0.9335661122E-01       8    8    1      -0.1696898947E+03      0.2424950143E+03      0.2295574697E+04     -0.9335661122E-01
          0                 3           6             8    8     1      -0.4736062490E-02       8    8    1      -0.8568562919E+01      0.1221240247E+02      0.2424950143E+03     -0.4736062490E-02
          0                 4           4             8    8     1      -0.2406005702E-03       8    8    1      -0.4285995953E+00      0.6095507484E+00      0.1221240247E+02     -0.2406005702E-03
          0                 5           2             2    8     1      -0.1198177229E-04       8    8    1      -0.2137395064E-01      0.3291242562E-01      0.6095507484E+00     -0.1198177229E-04

    ------------------------------------------------
       NWT REQUIRED            5 OUTER ITERATIONS 
       AND A TOTAL OF         29 INNER ITERATIONS.
    ------------------------------------------------
                                                   Max.-Head-Change                        Max.-Flux-Residual
  Residual-Control   Outer-Iter.   Inner-Iter.     Column Row Layer    Max.-Head-Change    Column Row Layer    Max.-Flux-Residual            L2-New               L2-Old           Solver-Max-Delh
          0                 1           8             4    9     1      -0.4701572108E-01       1    9    1      -0.3771910310E+02      0.9530417450E+02      0.3291242562E-01     -0.4701572108E-01
          0                 2           6             4    9     1       0.3978988955E-02       1    9    1       0.3690133094E+01      0.9390642225E+01      0.9530417450E+02      0.3978988955E-02
          0                 3           4             4    9     1       0.2049110890E-03       1    9    1       0.1960591738E+00      0.4762767116E+00      0.9390642225E+01      0.2049110890E-03
          0                 4           3             6    1     1       0.1119001628E-04       1    9    1       0.1143347193E-01      0.3190727697E-01      0.4762767116E+00      0.1119001628E-04

    ------------------------------------------------
       NWT REQUIRED            4 OUTER ITERATIONS 
       AND A TOTAL OF         21 INNER ITERATIONS.
    ------------------------------------------------
                                                   Max.-Head-Change                        Max.-Flux-Residual
  Residual-Control   Outer-Iter.   Inner-Iter.     Column Row Layer    Max.-Head-Change    Column Row Layer    Max.-Flux-Residual            L2-New               L2-Old           Solver-Max-Delh
          0                 1           7             9    9     1       0.3455236951E-01       8    9    1       0.2126506097E+02      0.4512647748E+02      0.3190727697E-01      0.3455236951E-01
          0                 2           5             9    9     1      -0.2915657981E-02       8    9    1      -0.2077005531E+01      0.4433378393E+01      0.4512647748E+02     -0.2915657981E-02
          0                 3           4             9    9     1      -0.1539543938E-03       9    9    1      -0.1107575905E+00      0.2321170996E+00      0.4433378393E+01     -0.1539543938E-03
          0                 4           2             9    9     1      -0.1035196907E-04       1    1    1       0.1570916700E-01      0.2271541780E-01      0.2321170996E+00     -0.1035196907E-04

    ------------------------------------------------
       NWT REQUIRED            4 OUTER ITERATIONS 
       AND A TOTAL OF         18 INNER ITERATIONS.
    ------------------------------------------------
                                                   Max.-Head-Change                        Max.-Flux-Residual
  Residual-Control   Outer-Iter.   Inner-Iter.     Column Row Layer    Max.-Head-Change    Column Row Layer    Max.-Flux-Residual            L2-New               L2-Old           Solver-Max-Delh
          0                 1           8             9    9     1       0.3515025354E-01       8    9    1       0.2032358206E+02      0.4843483722E+02      0.2271541780E-01      0.3515025354E-01
          0                 2           6             9    9     1      -0.2965882219E-02       7    9    1      -0.1997796712E+01      0.4741860510E+01      0.4843483722E+02     -0.2965882219E-02
          0                 3           4             9    9     1      -0.1470473350E-03       8    9    1      -0.9939980274E-01      0.2396605199E+00      0.4741860510E+01     -0.1470473350E-03
          0                 4           2             9    9     1      -0.1003392714E-04       2    9    1      -0.7775491802E-02      0.2128031881E-01      0.2396605199E+00     -0.1003392714E-04

    ------------------------------------------------
       NWT REQUIRED            4 OUTER ITERATIONS 
       AND A TOTAL OF         20 INNER ITERATIONS.
    ------------------------------------------------
                                                   Max.-Head-Change                        Max.-Flux-Residual
  Residual-Control   Outer-Iter.   Inner-Iter.     Column Row Layer    Max.-Head-Change    Column Row Layer    Max.-Flux-Residual            L2-New               L2-Old           Solver-Max-Delh
          0                 1           7             9    9     1       0.1753700923E-01       1    9    1       0.1176324782E+02      0.2852659036E+02      0.2128031881E-01      0.1753700923E-01
          0                 2           5             9    9     1      -0.1476667810E-02       1    9    1      -0.1149882514E+01      0.2789640845E+01      0.2852659036E+02     -0.1476667810E-02
          0                 3           4             9    9     1      -0.7913972003E-04       1    9    1      -0.6705367588E-01      0.1502339552E+00      0.2789640845E+01     -0.7913972003E-04

    ------------------------------------------------
       NWT REQUIRED            3 OUTER ITERATIONS 
       AND A TOTAL OF         16 INNER ITERATIONS.
    ------------------------------------------------
                                                   Max.-Head-Change                        Max.-Flux-Residual
  Residual-Control   Outer-Iter.   Inner-Iter.     Column Row Layer    Max.-Head-Change    Column Row Layer    Max.-Flux-Residual            L2-New               L2-Old           Solver-Max-Delh
          0                 1           7             1    9     1       0.7768699085E-02       1    9    1       0.6819881833E+01      0.1321648134E+02      0.1502339552E+00      0.7768699085E-02
          0                 2           5             1    9     1      -0.6565448447E-03       1    9    1      -0.6694686657E+00      0.1299021515E+01      0.1321648134E+02     -0.6565448447E-03
          0                 3           3             1    9     1      -0.3231444044E-04       1    9    1      -0.3212675534E-01      0.6423877079E-01      0.1299021515E+01     -0.3231444044E-04

    ------------------------------------------------
       NWT REQUIRED            3 OUTER ITERATIONS 
       AND A TOTAL OF         15 INNER ITERATIONS.
    ------------------------------------------------
                                                   Max.-Head-Change                        Max.-Flux-Residual
  Residual-Control   Outer-Iter.   Inner-Iter.     Column Row Layer    Max.-Head-Change    Column Row Layer    Max.-Flux-Residual            L2-New               L2-Old           Solver-Max-Delh
          0                 1           6             1    9     1       0.3758710710E-02       1    9    1       0.3409799756E+01      0.6566698408E+01      0.6423877079E-01      0.3758710710E-02
          0                 2           5             1    9     1      -0.3175312665E-03       1    9    1      -0.3333452205E+00      0.6491251252E+00      0.6566698408E+01     -0.3175312665E-03
          0                 3           3             1    8     1      -0.1693655944E-04       1    9    1      -0.1641989453E-01      0.3727271910E-01      0.6491251252E+00     -0.1693655944E-04

    ------------------------------------------------
       NWT REQUIRED            3 OUTER ITERATIONS 
       AND A TOTAL OF         14 INNER ITERATIONS.
    ------------------------------------------------
                                                   Max.-Head-Change                        Max.-Flux-Residual
  Residual-Control   Outer-Iter.   Inner-Iter.     Column Row Layer    Max.-Head-Change    Column Row Layer    Max.-Flux-Residual            L2-New               L2-Old           Solver-Max-Delh
          0                 1           6             1    9     1       0.1661174392E-02       1    9    1       0.1548555376E+01      0.3600785863E+01      0.3727271910E-01      0.1661174392E-02
          0                 2           4             1    9     1      -0.1369340495E-03       1    9    1      -0.1491183490E+00      0.3524485832E+00      0.3600785863E+01     -0.1369340495E-03
          0                 3           2             1    9     1      -0.9470783830E-05       1    9    1      -0.1175652462E-01      0.2467544900E-01      0.3524485832E+00     -0.9470783830E-05

    ------------------------------------------------
       NWT REQUIRED            3 OUTER ITERATIONS 
       AND A TOTAL OF         12 INNER ITERATIONS.
    ------------------------------------------------
                                                   Max.-Head-Change                        Max.-Flux-Residual
  Residual-Control   Outer-Iter.   Inner-Iter.     Column Row Layer    Max.-Head-Change    Column Row Layer    Max.-Flux-Residual            L2-New               L2-Old           Solver-Max-Delh
          0                 1           5             9    9     1      -0.7485508820E-03       1    9    1       0.6736495653E+00      0.1689203209E+01      0.2467544900E-01     -0.7485508820E-03
          0                 2           4             9    9     1       0.5897712352E-04       1    9    1      -0.6435809936E-01      0.1607128119E+00      0.1689203209E+01      0.5897712352E-04

    ------------------------------------------------
       NWT REQUIRED            2 OUTER ITERATIONS 
       AND A TOTAL OF          9 INNER ITERATIONS.
    ------------------------------------------------
                                                   Max.-Head-Change                        Max.-Flux-Residual
  Residual-Control   Outer-Iter.   Inner-Iter.     Column Row Layer    Max.-Head-Change    Column Row Layer    Max.-Flux-Residual            L2-New               L2-Old           Solver-Max-Delh
          0                 1           5             1    9     1       0.2906328379E-03       1    9    1       0.2774488315E+00      0.6115231884E+00      0.1607128119E+00      0.2906328379E-03
          0                 2           3             1    9     1      -0.2714959760E-04       1    9    1      -0.3397442470E-01      0.6476037812E-01      0.6115231884E+00     -0.2714959760E-04

    ------------------------------------------------
       NWT REQUIRED            2 OUTER ITERATIONS 
       AND A TOTAL OF          8 INNER ITERATIONS.
    ------------------------------------------------

 OUTPUT CONTROL FOR STRESS PERIOD     19   TIME STEP     2
    SAVE BUDGET
 UBDSV1 SAVING "         STORAGE" ON UNIT7011 AT TIME STEP    2, STRESS PERIOD  19
 UBDSV2 SAVING "   CONSTANT HEAD" ON UNIT7011 AT TIME STEP    2, STRESS PERIOD  19
 UBDSV1 SAVING "FLOW RIGHT FACE " ON UNIT7011 AT TIME STEP    2, STRESS PERIOD  19
 UBDSV1 SAVING "FLOW FRONT FACE " ON UNIT7011 AT TIME STEP    2, STRESS PERIOD  19
 UBDSV1 SAVING "FLOW LOWER FACE " ON UNIT7011 AT TIME STEP    2, STRESS PERIOD  19
 
 
 
 
 
 
 
 
 UBDSV3 SAVING "FARM  NET  RECH." ON UNIT7011 AT TIME STEP    2, STRESS PERIOD  19
 UBDSV4 SAVING " GHOST-NODE HEAD" ON UNIT7011 AT TIME STEP    2, STRESS PERIOD  19
1
  VOLUMETRIC BUDGET FOR ENTIRE MODEL AT END OF TIME STEP    2 IN STRESS PERIOD     19
  ------------------------------------------------------------------------------

     CUMULATIVE VOLUMES      L**3       RATES FOR THIS TIME STEP      L**3/T
     ------------------                 ------------------------

           IN:                                      IN:
           ---                                      ---
             STORAGE =      264605.8125               STORAGE =         797.1760
       CONSTANT HEAD =           0.0000         CONSTANT HEAD =           0.0000
          FARM WELLS =           0.0000            FARM WELLS =           0.0000
    FARM  NET  RECH. =     1373925.7500      FARM  NET  RECH. =        2710.3398
     GHOST-NODE HEAD =     5272368.0000       GHOST-NODE HEAD =        5223.8896

            TOTAL IN =     6910899.5000              TOTAL IN =        8731.4053

          OUT:                                     OUT:
          ----                                     ----
             STORAGE =     3810058.5000               STORAGE =           0.0000
       CONSTANT HEAD =           0.0000         CONSTANT HEAD =           0.0000
          FARM WELLS =     1949213.5000            FARM WELLS =        6819.2012
    FARM  NET  RECH. =           0.0000      FARM  NET  RECH. =           0.0000
     GHOST-NODE HEAD =     1151625.6250       GHOST-NODE HEAD =        1912.2233

           TOTAL OUT =     6910897.5000             TOTAL OUT =        8731.4248

            IN - OUT =           2.0000              IN - OUT =      -1.9531E-02

 PERCENT DISCREPANCY =           0.00     PERCENT DISCREPANCY =          -0.00






          TIME SUMMARY AT END OF TIME STEP     2 IN STRESS PERIOD     19
                    SECONDS     MINUTES      HOURS       DAYS        YEARS
                    -----------------------------------------------------------
   TIME STEP LENGTH 1.31414E+06  21902.      365.04      15.210     4.16427E-02
 STRESS PERIOD TIME 2.62829E+06  43805.      730.08      30.420     8.32854E-02
         TOTAL TIME 4.99375E+07 8.32291E+05  13872.      577.98      1.5824    
1
1
  FLUX ACROSS PARENT-CHILD INTERFACE AT TIME STEP  2 IN STRESS PERIOD   19
  ------------------------------------------------------------------------
 G-N FLUX        PARENT        CHILD         DIFFERENCE      % DIFFERENCE
  RATE IN:      5.2237E+03    5.2239E+03    -1.6260E-01       -0.0031
 RATE OUT:      1.9129E+03    1.9122E+03     6.4404E-01        0.0337
1
                            STRESS PERIOD NO.     20, LENGTH =   30.42000    
                            -----------------------------------------------

                              NUMBER OF TIME STEPS =     2

                               MULTIPLIER FOR DELT =     1.000

                            INITIAL TIME STEP SIZE =   15.21000    

 Parameter:  WELLS1
 WELL NO. LAYER    ROW    COL  F-WELL ID    FARM ID         QMAX         QMAXRESET       LGRGRID         
 --------------------------------------------------------------------------------------------------------
       1      1      8      2          2          1      5.0000E+03              0              0
       2      1      8      8          3          1      5.0000E+03              0              0

 NUMBER OF ACTIVE FARM WELLS:        2

 FARM-ID  NUMBER OF WELLS PER FARM  TOTAL MAX.CAPACITY PER FARM
       1                         2                   10000.0000
       2                         0                       0.0000
       3                         0                       0.0000
       4                         0                       0.0000
       5                         0                       0.0000
       6                         0                       0.0000
       7                         0                       0.0000
       8                         0                       0.0000

Transpiratory and Evaporative Fractions of Crop Consumptive Use
    % Transpiration % Evap. for Precip. % Evap. for Irrig.
    2          0.950          0.050          0.050
    3          0.000          1.000          1.000

FRACTIONS OF IN-EFFICIENT LOSSES TO SW-RUNOFF FROM 
     PRECIPITATION:  IRRIGATION:
    2          0.400          0.300
    3          0.600          0.500
 
 SOLVING FOR HEAD 
                                                   Max.-Head-Change                        Max.-Flux-Residual
  Residual-Control   Outer-Iter.   Inner-Iter.     Column Row Layer    Max.-Head-Change    Column Row Layer    Max.-Flux-Residual            L2-New               L2-Old           Solver-Max-Delh
          0                 1           9             8    8     1      -0.9328633225E+00       2    8    1      -0.1056600224E+04      0.1516184566E+04      0.6476037812E-01     -0.9328633225E+00
          0                 2           8             8    8     1       0.7690862750E-01       2    8    1       0.9883538723E+02      0.1413778602E+03      0.1516184566E+04      0.7690862750E-01
          0                 3           6             8    8     1       0.3900734738E-02       2    8    1       0.4895104433E+01      0.7009677422E+01      0.1413778602E+03      0.3900734738E-02
          0                 4           4             8    8     1       0.2012298800E-03       2    8    1       0.2446178923E+00      0.3530083987E+00      0.7009677422E+01      0.2012298800E-03
          0                 5           2             2    8     1       0.5666407716E-05       2    8    1       0.1220938360E-01      0.2333825266E-01      0.3530083987E+00      0.5666407716E-05

    ------------------------------------------------
       NWT REQUIRED            5 OUTER ITERATIONS 
       AND A TOTAL OF         29 INNER ITERATIONS.
    ------------------------------------------------
                                                   Max.-Head-Change                        Max.-Flux-Residual
  Residual-Control   Outer-Iter.   Inner-Iter.     Column Row Layer    Max.-Head-Change    Column Row Layer    Max.-Flux-Residual            L2-New               L2-Old           Solver-Max-Delh
          0                 1           9             8    8     1       0.1032684224E+01       8    8    1       0.1551890988E+04      0.2235191730E+04      0.2333825266E-01      0.1032684224E+01
          0                 2           8             8    8     1      -0.9701403523E-01       8    8    1      -0.1729238419E+03      0.2464883544E+03      0.2235191730E+04     -0.9701403523E-01
          0                 3           6             8    8     1      -0.4922914201E-02       8    8    1      -0.8737570735E+01      0.1242223694E+02      0.2464883544E+03     -0.4922914201E-02
          0                 4           4             8    8     1      -0.2470346713E-03       8    8    1      -0.4369813744E+00      0.6207840972E+00      0.1242223694E+02     -0.2470346713E-03
          0                 5           2             8    8     1      -0.1189197180E-04       8    8    1      -0.2187737543E-01      0.3436420788E-01      0.6207840972E+00     -0.1189197180E-04

    ------------------------------------------------
       NWT REQUIRED            5 OUTER ITERATIONS 
       AND A TOTAL OF         29 INNER ITERATIONS.
    ------------------------------------------------
                                                   Max.-Head-Change                        Max.-Flux-Residual
  Residual-Control   Outer-Iter.   Inner-Iter.     Column Row Layer    Max.-Head-Change    Column Row Layer    Max.-Flux-Residual            L2-New               L2-Old           Solver-Max-Delh
          0                 1           8             1    1     2      -0.3098963000E-01       1    1    1      -0.2526546521E+02      0.6659958126E+02      0.3436420788E-01     -0.3098963000E-01
          0                 2           6             1    1     2       0.2676709218E-02       1    1    1       0.2539097121E+01      0.6621442507E+01      0.6659958126E+02      0.2676709218E-02
          0                 3           4             1    1     2       0.1339954147E-03       1    1    1       0.1212845283E+00      0.3353925530E+00      0.6621442507E+01      0.1339954147E-03
          0                 4           3             1    1     1       0.1100309598E-04       1    1    1       0.1228623476E-01      0.2826612752E-01      0.3353925530E+00      0.1100309598E-04

    ------------------------------------------------
       NWT REQUIRED            4 OUTER ITERATIONS 
       AND A TOTAL OF         21 INNER ITERATIONS.
    ------------------------------------------------
                                                   Max.-Head-Change                        Max.-Flux-Residual
  Residual-Control   Outer-Iter.   Inner-Iter.     Column Row Layer    Max.-Head-Change    Column Row Layer    Max.-Flux-Residual            L2-New               L2-Old           Solver-Max-Delh
          0                 1           8             9    9     1       0.4787937167E-01       8    9    1       0.2859012965E+02      0.6402432739E+02      0.2826612752E-01      0.4787937167E-01
          0                 2           6             9    9     1      -0.4050024701E-02       7    9    1      -0.2800408741E+01      0.6291107810E+01      0.6402432739E+02     -0.4050024701E-02
          0                 3           4             9    9     1      -0.2071631557E-03       7    9    1      -0.1447997531E+00      0.3259247234E+00      0.6291107810E+01     -0.2071631557E-03
          0                 4           2             9    9     1      -0.9681887640E-05       8    9    1      -0.8327002986E-02      0.1976161663E-01      0.3259247234E+00     -0.9681887640E-05

    ------------------------------------------------
       NWT REQUIRED            4 OUTER ITERATIONS 
       AND A TOTAL OF         20 INNER ITERATIONS.
    ------------------------------------------------
                                                   Max.-Head-Change                        Max.-Flux-Residual
  Residual-Control   Outer-Iter.   Inner-Iter.     Column Row Layer    Max.-Head-Change    Column Row Layer    Max.-Flux-Residual            L2-New               L2-Old           Solver-Max-Delh
          0                 1           8             9    9     1       0.3989310698E-01       8    9    1       0.2276597917E+02      0.5727069621E+02      0.1976161663E-01      0.3989310698E-01
          0                 2           6             9    9     1      -0.3369167369E-02       7    9    1      -0.2235226460E+01      0.5612976972E+01      0.5727069621E+02     -0.3369167369E-02
          0                 3           4             9    9     1      -0.1772354173E-03       7    9    1      -0.1193403536E+00      0.2894719367E+00      0.5612976972E+01     -0.1772354173E-03
          0                 4           2             1    9     1      -0.1322869200E-04       1    9    1      -0.1618917350E-01      0.2382794046E-01      0.2894719367E+00     -0.1322869200E-04

    ------------------------------------------------
       NWT REQUIRED            4 OUTER ITERATIONS 
       AND A TOTAL OF         20 INNER ITERATIONS.
    ------------------------------------------------
                                                   Max.-Head-Change                        Max.-Flux-Residual
  Residual-Control   Outer-Iter.   Inner-Iter.     Column Row Layer    Max.-Head-Change    Column Row Layer    Max.-Flux-Residual            L2-New               L2-Old           Solver-Max-Delh
          0                 1           7             9    9     1       0.1802991837E-01       1    9    1       0.1392326544E+02      0.3134383801E+02      0.2382794046E-01      0.1802991837E-01
          0                 2           5             9    9     1      -0.1525361328E-02       1    9    1      -0.1359583342E+01      0.3072244391E+01      0.3134383801E+02     -0.1525361328E-02
          0                 3           4             9    9     1      -0.7976704521E-04       1    9    1      -0.7091638091E-01      0.1609848937E+00      0.3072244391E+01     -0.7976704521E-04

    ------------------------------------------------
       NWT REQUIRED            3 OUTER ITERATIONS 
       AND A TOTAL OF         16 INNER ITERATIONS.
    ------------------------------------------------
                                                   Max.-Head-Change                        Max.-Flux-Residual
  Residual-Control   Outer-Iter.   Inner-Iter.     Column Row Layer    Max.-Head-Change    Column Row Layer    Max.-Flux-Residual            L2-New               L2-Old           Solver-Max-Delh
          0                 1           7             1    9     1       0.8586131594E-02       1    9    1       0.7596247546E+01      0.1415276729E+02      0.1609848937E+00      0.8586131594E-02
          0                 2           5             1    9     1      -0.7291058340E-03       1    9    1      -0.7474209571E+00      0.1394407324E+01      0.1415276729E+02     -0.7291058340E-03
          0                 3           3             1    8     1      -0.3501768363E-04       1    9    1      -0.3190842015E-01      0.7392922943E-01      0.1394407324E+01     -0.3501768363E-04

    ------------------------------------------------
       NWT REQUIRED            3 OUTER ITERATIONS 
       AND A TOTAL OF         15 INNER ITERATIONS.
    ------------------------------------------------
                                                   Max.-Head-Change                        Max.-Flux-Residual
  Residual-Control   Outer-Iter.   Inner-Iter.     Column Row Layer    Max.-Head-Change    Column Row Layer    Max.-Flux-Residual            L2-New               L2-Old           Solver-Max-Delh
          0                 1           6             1    9     1       0.3984761636E-02       1    9    1       0.3645597032E+01      0.7132039876E+01      0.7392922943E-01      0.3984761636E-02
          0                 2           5             1    9     1      -0.3381677519E-03       1    9    1      -0.3575578357E+00      0.7025168458E+00      0.7132039876E+01     -0.3381677519E-03
          0                 3           3             1    9     1      -0.1853815950E-04       1    9    1      -0.2291773225E-01      0.4152698765E-01      0.7025168458E+00     -0.1853815950E-04

    ------------------------------------------------
       NWT REQUIRED            3 OUTER ITERATIONS 
       AND A TOTAL OF         14 INNER ITERATIONS.
    ------------------------------------------------
                                                   Max.-Head-Change                        Max.-Flux-Residual
  Residual-Control   Outer-Iter.   Inner-Iter.     Column Row Layer    Max.-Head-Change    Column Row Layer    Max.-Flux-Residual            L2-New               L2-Old           Solver-Max-Delh
          0                 1           6             1    9     1       0.1693373850E-02       1    9    1       0.1591538420E+01      0.3835302308E+01      0.4152698765E-01      0.1693373850E-02
          0                 2           4             9    9     2       0.1415925471E-03       1    9    1      -0.1511836590E+00      0.3760567844E+00      0.3835302308E+01      0.1415925471E-03
          0                 3           2             9    9     1       0.9012595687E-05       8    9    1       0.9270069655E-02      0.2573408720E-01      0.3760567844E+00      0.9012595687E-05

    ------------------------------------------------
       NWT REQUIRED            3 OUTER ITERATIONS 
       AND A TOTAL OF         12 INNER ITERATIONS.
    ------------------------------------------------
                                                   Max.-Head-Change                        Max.-Flux-Residual
  Residual-Control   Outer-Iter.   Inner-Iter.     Column Row Layer    Max.-Head-Change    Column Row Layer    Max.-Flux-Residual            L2-New               L2-Old           Solver-Max-Delh
          0                 1           5             9    9     1      -0.7682034602E-03       1    9    1       0.6564087444E+00      0.1711714794E+01      0.2573408720E-01     -0.7682034602E-03
          0                 2           4             9    9     1       0.6340964786E-04       1    9    1      -0.6240095082E-01      0.1677052801E+00      0.1711714794E+01      0.6340964786E-04

    ------------------------------------------------
       NWT REQUIRED            2 OUTER ITERATIONS 
       AND A TOTAL OF          9 INNER ITERATIONS.
    ------------------------------------------------
                                                   Max.-Head-Change                        Max.-Flux-Residual
  Residual-Control   Outer-Iter.   Inner-Iter.     Column Row Layer    Max.-Head-Change    Column Row Layer    Max.-Flux-Residual            L2-New               L2-Old           Solver-Max-Delh
          0                 1           5             9    9     3       0.2919546081E-03       1    9    1       0.2479318129E+00      0.5412611928E+00      0.1677052801E+00      0.2919546081E-03
          0                 2           3             9    9     3      -0.2383748643E-04       1    1    1      -0.2170497598E-01      0.5201237337E-01      0.5412611928E+00     -0.2383748643E-04

    ------------------------------------------------
       NWT REQUIRED            2 OUTER ITERATIONS 
       AND A TOTAL OF          8 INNER ITERATIONS.
    ------------------------------------------------

 OUTPUT CONTROL FOR STRESS PERIOD     20   TIME STEP     1
    SAVE BUDGET
 UBDSV1 SAVING "         STORAGE" ON UNIT7011 AT TIME STEP    1, STRESS PERIOD  20
 UBDSV2 SAVING "   CONSTANT HEAD" ON UNIT7011 AT TIME STEP    1, STRESS PERIOD  20
 UBDSV1 SAVING "FLOW RIGHT FACE " ON UNIT7011 AT TIME STEP    1, STRESS PERIOD  20
 UBDSV1 SAVING "FLOW FRONT FACE " ON UNIT7011 AT TIME STEP    1, STRESS PERIOD  20
 UBDSV1 SAVING "FLOW LOWER FACE " ON UNIT7011 AT TIME STEP    1, STRESS PERIOD  20
 
 
 
 
 
 
 
 
 UBDSV3 SAVING "FARM  NET  RECH." ON UNIT7011 AT TIME STEP    1, STRESS PERIOD  20
 UBDSV4 SAVING " GHOST-NODE HEAD" ON UNIT7011 AT TIME STEP    1, STRESS PERIOD  20
1
  FLUX ACROSS PARENT-CHILD INTERFACE AT TIME STEP  1 IN STRESS PERIOD   20
  ------------------------------------------------------------------------
 G-N FLUX        PARENT        CHILD         DIFFERENCE      % DIFFERENCE
  RATE IN:      4.7854E+03    4.7856E+03    -2.1582E-01       -0.0045
 RATE OUT:      1.9344E+03    1.9336E+03     7.4463E-01        0.0385
 
 SOLVING FOR HEAD 
                                                   Max.-Head-Change                        Max.-Flux-Residual
  Residual-Control   Outer-Iter.   Inner-Iter.     Column Row Layer    Max.-Head-Change    Column Row Layer    Max.-Flux-Residual            L2-New               L2-Old           Solver-Max-Delh
          0                 1           9             8    8     1      -0.1273155014E+01       2    8    1      -0.1598875478E+04      0.2270914024E+04      0.5201237337E-01     -0.1273155014E+01
          0                 2           8             8    8     1       0.1037087113E+00       2    8    1       0.1475587776E+03      0.2074726719E+03      0.2270914024E+04      0.1037087113E+00
          0                 3           6             8    8     1       0.5235484228E-02       2    8    1       0.7294716049E+01      0.1024271921E+02      0.2074726719E+03      0.5235484228E-02
          0                 4           4             8    8     1       0.2678660858E-03       2    8    1       0.3644903725E+00      0.5124163045E+00      0.1024271921E+02      0.2678660858E-03
          0                 5           3             8    8     1       0.1340411334E-04       2    8    1       0.1819904457E-01      0.3057364911E-01      0.5124163045E+00      0.1340411334E-04

    ------------------------------------------------
       NWT REQUIRED            5 OUTER ITERATIONS 
       AND A TOTAL OF         30 INNER ITERATIONS.
    ------------------------------------------------
                                                   Max.-Head-Change                        Max.-Flux-Residual
  Residual-Control   Outer-Iter.   Inner-Iter.     Column Row Layer    Max.-Head-Change    Column Row Layer    Max.-Flux-Residual            L2-New               L2-Old           Solver-Max-Delh
          0                 1           9             8    8     1       0.1063965131E+01       2    8    1       0.1601131334E+04      0.2305692850E+04      0.3057364911E-01      0.1063965131E+01
          0                 2           8             8    8     1      -0.9480600683E-01       8    8    1      -0.1710852666E+03      0.2441408692E+03      0.2305692850E+04     -0.9480600683E-01
          0                 3           6             8    8     1      -0.4807546576E-02       8    8    1      -0.8641145287E+01      0.1230044281E+02      0.2441408692E+03     -0.4807546576E-02
          0                 4           4             8    8     1      -0.2428233012E-03       8    8    1      -0.4321604288E+00      0.6143198040E+00      0.1230044281E+02     -0.2428233012E-03
          0                 5           2             8    8     1      -0.1099788570E-04       8    8    1      -0.2163374051E-01      0.3300925859E-01      0.6143198040E+00     -0.1099788570E-04

    ------------------------------------------------
       NWT REQUIRED            5 OUTER ITERATIONS 
       AND A TOTAL OF         29 INNER ITERATIONS.
    ------------------------------------------------
                                                   Max.-Head-Change                        Max.-Flux-Residual
  Residual-Control   Outer-Iter.   Inner-Iter.     Column Row Layer    Max.-Head-Change    Column Row Layer    Max.-Flux-Residual            L2-New               L2-Old           Solver-Max-Delh
          0                 1           8             5    9     1      -0.3987097278E-01       1    9    1      -0.2867529185E+02      0.7930207137E+02      0.3300925859E-01     -0.3987097278E-01
          0                 2           6             5    9     1       0.3382870463E-02       1    9    1       0.2817014330E+01      0.7838785015E+01      0.7930207137E+02      0.3382870463E-02
          0                 3           4             4    9     1       0.1716377422E-03       1    9    1       0.1483929260E+00      0.3958532027E+00      0.7838785015E+01      0.1716377422E-03
          0                 4           3             1    1     1       0.9886888258E-05       1    1    1       0.1399419154E-01      0.2726362638E-01      0.3958532027E+00      0.9886888258E-05

    ------------------------------------------------
       NWT REQUIRED            4 OUTER ITERATIONS 
       AND A TOTAL OF         21 INNER ITERATIONS.
    ------------------------------------------------
                                                   Max.-Head-Change                        Max.-Flux-Residual
  Residual-Control   Outer-Iter.   Inner-Iter.     Column Row Layer    Max.-Head-Change    Column Row Layer    Max.-Flux-Residual            L2-New               L2-Old           Solver-Max-Delh
          0                 1           7             9    9     1       0.3824961316E-01       8    9    1       0.2302764890E+02      0.4951002837E+02      0.2726362638E-01      0.3824961316E-01
          0                 2           6             9    9     1      -0.3233369642E-02       8    9    1      -0.2254303820E+01      0.4864555529E+01      0.4951002837E+02     -0.3233369642E-02
          0                 3           4             9    9     1      -0.1685748150E-03       9    9    1      -0.1191996078E+00      0.2518417608E+00      0.4864555529E+01     -0.1685748150E-03
          0                 4           2             7    9     1      -0.8234071190E-05       2    9    1      -0.8010705002E-02      0.2080150054E-01      0.2518417608E+00     -0.8234071190E-05

    ------------------------------------------------
       NWT REQUIRED            4 OUTER ITERATIONS 
       AND A TOTAL OF         19 INNER ITERATIONS.
    ------------------------------------------------
                                                   Max.-Head-Change                        Max.-Flux-Residual
  Residual-Control   Outer-Iter.   Inner-Iter.     Column Row Layer    Max.-Head-Change    Column Row Layer    Max.-Flux-Residual            L2-New               L2-Old           Solver-Max-Delh
          0                 1           8             9    9     1       0.3711345194E-01       8    9    1       0.2127402185E+02      0.5123277956E+02      0.2080150054E-01      0.3711345194E-01
          0                 2           6             9    9     1      -0.3141992967E-02       7    9    1      -0.2094326552E+01      0.5030698469E+01      0.5123277956E+02     -0.3141992967E-02
          0                 3           4             9    9     1      -0.1600976863E-03       7    9    1      -0.1118282372E+00      0.2608061418E+00      0.5030698469E+01     -0.1600976863E-03
          0                 4           2             9    9     1      -0.9173861379E-05       8    9    1      -0.8935478923E-02      0.2053491357E-01      0.2608061418E+00     -0.9173861379E-05

    ------------------------------------------------
       NWT REQUIRED            4 OUTER ITERATIONS 
       AND A TOTAL OF         20 INNER ITERATIONS.
    ------------------------------------------------
                                                   Max.-Head-Change                        Max.-Flux-Residual
  Residual-Control   Outer-Iter.   Inner-Iter.     Column Row Layer    Max.-Head-Change    Column Row Layer    Max.-Flux-Residual            L2-New               L2-Old           Solver-Max-Delh
          0                 1           7             9    9     1       0.1824460709E-01       1    9    1       0.1205706009E+02      0.2941014158E+02      0.2053491357E-01      0.1824460709E-01
          0                 2           5             9    9     1      -0.1543379134E-02       1    9    1      -0.1188294157E+01      0.2890349353E+01      0.2941014158E+02     -0.1543379134E-02
          0                 3           4             8    9     1      -0.7879685142E-04       1    9    1      -0.6465513463E-01      0.1527791739E+00      0.2890349353E+01     -0.7879685142E-04

    ------------------------------------------------
       NWT REQUIRED            3 OUTER ITERATIONS 
       AND A TOTAL OF         16 INNER ITERATIONS.
    ------------------------------------------------
                                                   Max.-Head-Change                        Max.-Flux-Residual
  Residual-Control   Outer-Iter.   Inner-Iter.     Column Row Layer    Max.-Head-Change    Column Row Layer    Max.-Flux-Residual            L2-New               L2-Old           Solver-Max-Delh
          0                 1           7             1    9     1       0.7713242349E-02       1    9    1       0.6731573840E+01      0.1321846458E+02      0.1527791739E+00      0.7713242349E-02
          0                 2           5             1    9     1      -0.6526320848E-03       1    9    1      -0.6571565715E+00      0.1301380009E+01      0.1321846458E+02     -0.6526320848E-03
          0                 3           3             1    9     1      -0.3065129132E-04       1    9    1      -0.3108953801E-01      0.6645349822E-01      0.1301380009E+01     -0.3065129132E-04

    ------------------------------------------------
       NWT REQUIRED            3 OUTER ITERATIONS 
       AND A TOTAL OF         15 INNER ITERATIONS.
    ------------------------------------------------
                                                   Max.-Head-Change                        Max.-Flux-Residual
  Residual-Control   Outer-Iter.   Inner-Iter.     Column Row Layer    Max.-Head-Change    Column Row Layer    Max.-Flux-Residual            L2-New               L2-Old           Solver-Max-Delh
          0                 1           6             1    9     1       0.3627651759E-02       1    9    1       0.3281318490E+01      0.6435816304E+01      0.6645349822E-01      0.3627651759E-02
          0                 2           5             1    9     1      -0.3089075745E-03       1    9    1      -0.3236343520E+00      0.6405930647E+00      0.6435816304E+01     -0.3089075745E-03
          0                 3           3             1    9     1      -0.1523396799E-04       1    9    1      -0.1795568387E-01      0.3322668850E-01      0.6405930647E+00     -0.1523396799E-04

    ------------------------------------------------
       NWT REQUIRED            3 OUTER ITERATIONS 
       AND A TOTAL OF         14 INNER ITERATIONS.
    ------------------------------------------------
                                                   Max.-Head-Change                        Max.-Flux-Residual
  Residual-Control   Outer-Iter.   Inner-Iter.     Column Row Layer    Max.-Head-Change    Column Row Layer    Max.-Flux-Residual            L2-New               L2-Old           Solver-Max-Delh
          0                 1           5             9    9     2      -0.1557977732E-02       1    9    1       0.1450402216E+01      0.3540220325E+01      0.3322668850E-01     -0.1557977732E-02
          0                 2           4             9    9     2       0.1364284884E-03       1    9    1      -0.1457361719E+00      0.3542508620E+00      0.3540220325E+01      0.1364284884E-03
          0                 3           2             1    7     1      -0.9764103992E-05       1    1    1      -0.1421975915E-01      0.2710305073E-01      0.3542508620E+00     -0.9764103992E-05

    ------------------------------------------------
       NWT REQUIRED            3 OUTER ITERATIONS 
       AND A TOTAL OF         11 INNER ITERATIONS.
    ------------------------------------------------
                                                   Max.-Head-Change                        Max.-Flux-Residual
  Residual-Control   Outer-Iter.   Inner-Iter.     Column Row Layer    Max.-Head-Change    Column Row Layer    Max.-Flux-Residual            L2-New               L2-Old           Solver-Max-Delh
          0                 1           5             9    9     1      -0.7834879647E-03       1    9    1       0.6202721804E+00      0.1635376808E+01      0.2710305073E-01     -0.7834879647E-03
          0                 2           4             9    9     1       0.6487771589E-04       1    9    1      -0.6282939209E-01      0.1608612075E+00      0.1635376808E+01      0.6487771589E-04

    ------------------------------------------------
       NWT REQUIRED            2 OUTER ITERATIONS 
       AND A TOTAL OF          9 INNER ITERATIONS.
    ------------------------------------------------
                                                   Max.-Head-Change                        Max.-Flux-Residual
  Residual-Control   Outer-Iter.   Inner-Iter.     Column Row Layer    Max.-Head-Change    Column Row Layer    Max.-Flux-Residual            L2-New               L2-Old           Solver-Max-Delh
          0                 1           5             1    9     1       0.2464408431E-03       1    9    1       0.2233467402E+00      0.5569374422E+00      0.1608612075E+00      0.2464408431E-03
          0                 2           3             1    1     1      -0.2323834084E-04       1    1    1      -0.2185965574E-01      0.5973277844E-01      0.5569374422E+00     -0.2323834084E-04

    ------------------------------------------------
       NWT REQUIRED            2 OUTER ITERATIONS 
       AND A TOTAL OF          8 INNER ITERATIONS.
    ------------------------------------------------

 OUTPUT CONTROL FOR STRESS PERIOD     20   TIME STEP     2
    SAVE BUDGET
 UBDSV1 SAVING "         STORAGE" ON UNIT7011 AT TIME STEP    2, STRESS PERIOD  20
 UBDSV2 SAVING "   CONSTANT HEAD" ON UNIT7011 AT TIME STEP    2, STRESS PERIOD  20
 UBDSV1 SAVING "FLOW RIGHT FACE " ON UNIT7011 AT TIME STEP    2, STRESS PERIOD  20
 UBDSV1 SAVING "FLOW FRONT FACE " ON UNIT7011 AT TIME STEP    2, STRESS PERIOD  20
 UBDSV1 SAVING "FLOW LOWER FACE " ON UNIT7011 AT TIME STEP    2, STRESS PERIOD  20
 
 
 
 
 
 
 
 
 UBDSV3 SAVING "FARM  NET  RECH." ON UNIT7011 AT TIME STEP    2, STRESS PERIOD  20
 UBDSV4 SAVING " GHOST-NODE HEAD" ON UNIT7011 AT TIME STEP    2, STRESS PERIOD  20
1
  VOLUMETRIC BUDGET FOR ENTIRE MODEL AT END OF TIME STEP    2 IN STRESS PERIOD     20
  ------------------------------------------------------------------------------

     CUMULATIVE VOLUMES      L**3       RATES FOR THIS TIME STEP      L**3/T
     ------------------                 ------------------------

           IN:                                      IN:
           ---                                      ---
             STORAGE =      282573.0312               STORAGE =         627.4777
       CONSTANT HEAD =           0.0000         CONSTANT HEAD =           0.0000
          FARM WELLS =           0.0000            FARM WELLS =           0.0000
    FARM  NET  RECH. =     1447373.5000      FARM  NET  RECH. =        2414.4570
     GHOST-NODE HEAD =     5417242.5000       GHOST-NODE HEAD =        4739.3521

            TOTAL IN =     7147189.0000              TOTAL IN =        7781.2871

          OUT:                                     OUT:
          ----                                     ----
             STORAGE =     3810179.0000               STORAGE =           0.0000
       CONSTANT HEAD =           0.0000         CONSTANT HEAD =           0.0000
          FARM WELLS =     2126024.0000            FARM WELLS =        5812.3096
    FARM  NET  RECH. =           0.0000      FARM  NET  RECH. =           0.0000
     GHOST-NODE HEAD =     1210984.3750       GHOST-NODE HEAD =        1968.9847

           TOTAL OUT =     7147187.5000             TOTAL OUT =        7781.2944

            IN - OUT =           1.5000              IN - OUT =      -7.3242E-03

 PERCENT DISCREPANCY =           0.00     PERCENT DISCREPANCY =          -0.00






          TIME SUMMARY AT END OF TIME STEP     2 IN STRESS PERIOD     20
                    SECONDS     MINUTES      HOURS       DAYS        YEARS
                    -----------------------------------------------------------
   TIME STEP LENGTH 1.31414E+06  21902.      365.04      15.210     4.16427E-02
 STRESS PERIOD TIME 2.62829E+06  43805.      730.08      30.420     8.32854E-02
         TOTAL TIME 5.25658E+07 8.76096E+05  14602.      608.40      1.6657    
1
1
  FLUX ACROSS PARENT-CHILD INTERFACE AT TIME STEP  2 IN STRESS PERIOD   20
  ------------------------------------------------------------------------
 G-N FLUX        PARENT        CHILD         DIFFERENCE      % DIFFERENCE
  RATE IN:      4.7392E+03    4.7394E+03    -1.4551E-01       -0.0031
 RATE OUT:      1.9697E+03    1.9690E+03     7.2693E-01        0.0369
1
                            STRESS PERIOD NO.     21, LENGTH =   30.42000    
                            -----------------------------------------------

                              NUMBER OF TIME STEPS =     2

                               MULTIPLIER FOR DELT =     1.000

                            INITIAL TIME STEP SIZE =   15.21000    

 Parameter:  WELLS1
 WELL NO. LAYER    ROW    COL  F-WELL ID    FARM ID         QMAX         QMAXRESET       LGRGRID         
 --------------------------------------------------------------------------------------------------------
       1      1      8      2          2          1      5.0000E+03              0              0
       2      1      8      8          3          1      5.0000E+03              0              0

 NUMBER OF ACTIVE FARM WELLS:        2

 FARM-ID  NUMBER OF WELLS PER FARM  TOTAL MAX.CAPACITY PER FARM
       1                         2                   10000.0000
       2                         0                       0.0000
       3                         0                       0.0000
       4                         0                       0.0000
       5                         0                       0.0000
       6                         0                       0.0000
       7                         0                       0.0000
       8                         0                       0.0000

Transpiratory and Evaporative Fractions of Crop Consumptive Use
    % Transpiration % Evap. for Precip. % Evap. for Irrig.
    2          0.950          0.050          0.050
    3          0.661          0.339          0.339

FRACTIONS OF IN-EFFICIENT LOSSES TO SW-RUNOFF FROM 
     PRECIPITATION:  IRRIGATION:
    2          0.400          0.300
    3          0.600          0.500
 
 SOLVING FOR HEAD 
                                                   Max.-Head-Change                        Max.-Flux-Residual
  Residual-Control   Outer-Iter.   Inner-Iter.     Column Row Layer    Max.-Head-Change    Column Row Layer    Max.-Flux-Residual            L2-New               L2-Old           Solver-Max-Delh
          0                 1           9             8    8     1      -0.9302146470E+00       2    8    1      -0.1299327099E+04      0.1842939147E+04      0.5973277844E-01     -0.9302146470E+00
          0                 2           8             8    8     1       0.7700972649E-01       2    8    1       0.1216266231E+03      0.1725312781E+03      0.1842939147E+04      0.7700972649E-01
          0                 3           6             8    8     1       0.3887346179E-02       2    8    1       0.6024490326E+01      0.8539779513E+01      0.1725312781E+03      0.3887346179E-02
          0                 4           4             8    8     1       0.1980308884E-03       2    8    1       0.3009981146E+00      0.4268797074E+00      0.8539779513E+01      0.1980308884E-03
          0                 5           2             2    8     1       0.1246730513E-04       2    8    1       0.1507072966E-01      0.2854381858E-01      0.4268797074E+00      0.1246730513E-04

    ------------------------------------------------
       NWT REQUIRED            5 OUTER ITERATIONS 
       AND A TOTAL OF         29 INNER ITERATIONS.
    ------------------------------------------------
                                                   Max.-Head-Change                        Max.-Flux-Residual
  Residual-Control   Outer-Iter.   Inner-Iter.     Column Row Layer    Max.-Head-Change    Column Row Layer    Max.-Flux-Residual            L2-New               L2-Old           Solver-Max-Delh
          0                 1           9             8    8     1       0.5135101952E+00       8    8    1       0.8153225679E+03      0.1193447344E+04      0.2854381858E-01      0.5135101952E+00
          0                 2           7             8    8     1      -0.4780210610E-01       8    8    1      -0.8821996495E+02      0.1279427576E+03      0.1193447344E+04     -0.4780210610E-01
          0                 3           5             8    8     1      -0.2413220810E-02       8    8    1      -0.4432855035E+01      0.6416233118E+01      0.1279427576E+03     -0.2413220810E-02
          0                 4           4             8    8     1      -0.1233121987E-03       8    8    1      -0.2216881257E+00      0.3208620420E+00      0.6416233118E+01     -0.1233121987E-03
          0                 5           1             8    8     1      -0.5027860849E-05       8    8    1      -0.1110399590E-01      0.1698742419E-01      0.3208620420E+00     -0.5027860849E-05

    ------------------------------------------------
       NWT REQUIRED            5 OUTER ITERATIONS 
       AND A TOTAL OF         26 INNER ITERATIONS.
    ------------------------------------------------
                                                   Max.-Head-Change                        Max.-Flux-Residual
  Residual-Control   Outer-Iter.   Inner-Iter.     Column Row Layer    Max.-Head-Change    Column Row Layer    Max.-Flux-Residual            L2-New               L2-Old           Solver-Max-Delh
          0                 1           8             5    9     1      -0.6096720043E-01       1    9    1      -0.4982094454E+02      0.1171011153E+03      0.1698742419E-01     -0.6096720043E-01
          0                 2           7             5    9     1       0.5154185893E-02       1    9    1       0.4870296763E+01      0.1147625161E+02      0.1171011153E+03      0.5154185893E-02
          0                 3           4             5    9     1       0.2673804114E-03       1    9    1       0.2528144009E+00      0.5933346411E+00      0.1147625161E+02      0.2673804114E-03
          0                 4           3             5    9     2       0.1298618522E-04       1    9    1       0.1024193125E-01      0.3096223332E-01      0.5933346411E+00      0.1298618522E-04

    ------------------------------------------------
       NWT REQUIRED            4 OUTER ITERATIONS 
       AND A TOTAL OF         22 INNER ITERATIONS.
    ------------------------------------------------
                                                   Max.-Head-Change                        Max.-Flux-Residual
  Residual-Control   Outer-Iter.   Inner-Iter.     Column Row Layer    Max.-Head-Change    Column Row Layer    Max.-Flux-Residual            L2-New               L2-Old           Solver-Max-Delh
          0                 1           7             1    9     1      -0.1687794450E-01       1    9    1      -0.1466474131E+02      0.3149098865E+02      0.3096223332E-01     -0.1687794450E-01
          0                 2           6             1    9     1       0.1424299765E-02       1    9    1       0.1431314076E+01      0.3111834158E+01      0.3149098865E+02      0.1424299765E-02
          0                 3           4             1    9     1       0.7621146530E-04       1    9    1       0.7884254918E-01      0.1651376720E+00      0.3111834158E+01      0.7621146530E-04

    ------------------------------------------------
       NWT REQUIRED            3 OUTER ITERATIONS 
       AND A TOTAL OF         17 INNER ITERATIONS.
    ------------------------------------------------
                                                   Max.-Head-Change                        Max.-Flux-Residual
  Residual-Control   Outer-Iter.   Inner-Iter.     Column Row Layer    Max.-Head-Change    Column Row Layer    Max.-Flux-Residual            L2-New               L2-Old           Solver-Max-Delh
          0                 1           6             9    9     1       0.1145008715E-01       8    9    1       0.7289929489E+01      0.1517767680E+02      0.1651376720E+00      0.1145008715E-01
          0                 2           5             9    9     2      -0.9678979471E-03       7    9    1      -0.7101238739E+00      0.1489534808E+01      0.1517767680E+02     -0.9678979471E-03
          0                 3           3             9    9     2      -0.4832540986E-04       7    9    1      -0.3770870564E-01      0.7698979473E-01      0.1489534808E+01     -0.4832540986E-04

    ------------------------------------------------
       NWT REQUIRED            3 OUTER ITERATIONS 
       AND A TOTAL OF         14 INNER ITERATIONS.
    ------------------------------------------------
                                                   Max.-Head-Change                        Max.-Flux-Residual
  Residual-Control   Outer-Iter.   Inner-Iter.     Column Row Layer    Max.-Head-Change    Column Row Layer    Max.-Flux-Residual            L2-New               L2-Old           Solver-Max-Delh
          0                 1           6             9    9     1       0.8666536560E-02       9    9    1       0.5108736415E+01      0.1084133903E+02      0.7698979473E-01      0.8666536560E-02
          0                 2           5             9    9     1      -0.7301053475E-03       9    9    1      -0.4972257485E+00      0.1062257653E+01      0.1084133903E+02     -0.7301053475E-03
          0                 3           3             9    9     1      -0.4190223681E-04       9    9    1      -0.3150709228E-01      0.5895763693E-01      0.1062257653E+01     -0.4190223681E-04

    ------------------------------------------------
       NWT REQUIRED            3 OUTER ITERATIONS 
       AND A TOTAL OF         14 INNER ITERATIONS.
    ------------------------------------------------
                                                   Max.-Head-Change                        Max.-Flux-Residual
  Residual-Control   Outer-Iter.   Inner-Iter.     Column Row Layer    Max.-Head-Change    Column Row Layer    Max.-Flux-Residual            L2-New               L2-Old           Solver-Max-Delh
          0                 1           6             9    9     1       0.3434255836E-02       1    9    1       0.1983723451E+01      0.5375784617E+01      0.5895763693E-01      0.3434255836E-02
          0                 2           4             9    9     1      -0.2872733372E-03       1    9    1      -0.1963348498E+00      0.5234785853E+00      0.5375784617E+01     -0.2872733372E-03
          0                 3           3             5    9     1      -0.1683433681E-04       8    9    1      -0.1470241632E-01      0.3511193266E-01      0.5234785853E+00     -0.1683433681E-04

    ------------------------------------------------
       NWT REQUIRED            3 OUTER ITERATIONS 
       AND A TOTAL OF         13 INNER ITERATIONS.
    ------------------------------------------------
                                                   Max.-Head-Change                        Max.-Flux-Residual
  Residual-Control   Outer-Iter.   Inner-Iter.     Column Row Layer    Max.-Head-Change    Column Row Layer    Max.-Flux-Residual            L2-New               L2-Old           Solver-Max-Delh
          0                 1           5             1    9     1       0.1479700698E-02       1    9    1       0.1295681536E+01      0.2524818509E+01      0.3511193266E-01      0.1479700698E-02
          0                 2           4             1    9     1      -0.1278312592E-03       1    9    1      -0.1335800401E+00      0.2496080188E+00      0.2524818509E+01     -0.1278312592E-03
          0                 3           2             2    1     1      -0.7178470009E-05       6    9    1      -0.7785909227E-02      0.2224703852E-01      0.2496080188E+00     -0.7178470009E-05

    ------------------------------------------------
       NWT REQUIRED            3 OUTER ITERATIONS 
       AND A TOTAL OF         11 INNER ITERATIONS.
    ------------------------------------------------
                                                   Max.-Head-Change                        Max.-Flux-Residual
  Residual-Control   Outer-Iter.   Inner-Iter.     Column Row Layer    Max.-Head-Change    Column Row Layer    Max.-Flux-Residual            L2-New               L2-Old           Solver-Max-Delh
          0                 1           5             1    9     1       0.7821951455E-03       1    9    1       0.7137479011E+00      0.1616932231E+01      0.2224703852E-01      0.7821951455E-03
          0                 2           4             1    9     1      -0.5986061539E-04       1    9    1      -0.6287167140E-01      0.1587291161E+00      0.1616932231E+01     -0.5986061539E-04

    ------------------------------------------------
       NWT REQUIRED            2 OUTER ITERATIONS 
       AND A TOTAL OF          9 INNER ITERATIONS.
    ------------------------------------------------
                                                   Max.-Head-Change                        Max.-Flux-Residual
  Residual-Control   Outer-Iter.   Inner-Iter.     Column Row Layer    Max.-Head-Change    Column Row Layer    Max.-Flux-Residual            L2-New               L2-Old           Solver-Max-Delh
          0                 1           5             9    9     2      -0.4830492693E-03       1    9    1       0.3588839563E+00      0.9597974342E+00      0.1587291161E+00     -0.4830492693E-03
          0                 2           3             9    9     2       0.4313117328E-04       1    9    1      -0.3901648289E-01      0.1006282329E+00      0.9597974342E+00      0.4313117328E-04

    ------------------------------------------------
       NWT REQUIRED            2 OUTER ITERATIONS 
       AND A TOTAL OF          8 INNER ITERATIONS.
    ------------------------------------------------
                                                   Max.-Head-Change                        Max.-Flux-Residual
  Residual-Control   Outer-Iter.   Inner-Iter.     Column Row Layer    Max.-Head-Change    Column Row Layer    Max.-Flux-Residual            L2-New               L2-Old           Solver-Max-Delh
          0                 1           4             1    9     1       0.1961729985E-03       1    9    1       0.1820380497E+00      0.4462972057E+00      0.1006282329E+00      0.1961729985E-03
          0                 2           3             2    9     1      -0.1820200299E-04       7    9    1       0.1798634219E-01      0.4956882281E-01      0.4462972057E+00     -0.1820200299E-04

    ------------------------------------------------
       NWT REQUIRED            2 OUTER ITERATIONS 
       AND A TOTAL OF          7 INNER ITERATIONS.
    ------------------------------------------------

 OUTPUT CONTROL FOR STRESS PERIOD     21   TIME STEP     1
    SAVE BUDGET
 UBDSV1 SAVING "         STORAGE" ON UNIT7011 AT TIME STEP    1, STRESS PERIOD  21
 UBDSV2 SAVING "   CONSTANT HEAD" ON UNIT7011 AT TIME STEP    1, STRESS PERIOD  21
 UBDSV1 SAVING "FLOW RIGHT FACE " ON UNIT7011 AT TIME STEP    1, STRESS PERIOD  21
 UBDSV1 SAVING "FLOW FRONT FACE " ON UNIT7011 AT TIME STEP    1, STRESS PERIOD  21
 UBDSV1 SAVING "FLOW LOWER FACE " ON UNIT7011 AT TIME STEP    1, STRESS PERIOD  21
 
 
 
 
 
 
 
 
 UBDSV3 SAVING "FARM  NET  RECH." ON UNIT7011 AT TIME STEP    1, STRESS PERIOD  21
 UBDSV4 SAVING " GHOST-NODE HEAD" ON UNIT7011 AT TIME STEP    1, STRESS PERIOD  21
1
  FLUX ACROSS PARENT-CHILD INTERFACE AT TIME STEP  1 IN STRESS PERIOD   21
  ------------------------------------------------------------------------
 G-N FLUX        PARENT        CHILD         DIFFERENCE      % DIFFERENCE
  RATE IN:      5.3114E+03    5.3113E+03     1.1768E-01        0.0022
 RATE OUT:      1.9113E+03    1.9111E+03     1.8994E-01        0.0099
 
 SOLVING FOR HEAD 
                                                   Max.-Head-Change                        Max.-Flux-Residual
  Residual-Control   Outer-Iter.   Inner-Iter.     Column Row Layer    Max.-Head-Change    Column Row Layer    Max.-Flux-Residual            L2-New               L2-Old           Solver-Max-Delh
          0                 1           9             8    8     1      -0.7309028651E+00       2    8    1      -0.9024261093E+03      0.1294986389E+04      0.4956882281E-01     -0.7309028651E+00
          0                 2           8             8    8     1       0.6084482584E-01       2    8    1       0.8574652812E+02      0.1228962222E+03      0.1294986389E+04      0.6084482584E-01
          0                 3           6             8    8     1       0.3074834516E-02       2    8    1       0.4256050945E+01      0.6095575812E+01      0.1228962222E+03      0.3074834516E-02
          0                 4           4             8    8     1       0.1580415968E-03       2    8    1       0.2126889820E+00      0.3048996089E+00      0.6095575812E+01      0.1580415968E-03
          0                 5           2             2    8     1       0.6909407278E-05       2    8    1       0.1064981270E-01      0.2070077745E-01      0.3048996089E+00      0.6909407278E-05

    ------------------------------------------------
       NWT REQUIRED            5 OUTER ITERATIONS 
       AND A TOTAL OF         29 INNER ITERATIONS.
    ------------------------------------------------
                                                   Max.-Head-Change                        Max.-Flux-Residual
  Residual-Control   Outer-Iter.   Inner-Iter.     Column Row Layer    Max.-Head-Change    Column Row Layer    Max.-Flux-Residual            L2-New               L2-Old           Solver-Max-Delh
          0                 1           9             8    8     1       0.5650633659E+00       2    8    1       0.8829693018E+03      0.1284594976E+04      0.2070077745E-01      0.5650633659E+00
          0                 2           7             8    8     1      -0.4949146266E-01       8    8    1      -0.9135720610E+02      0.1321329138E+03      0.1284594976E+04     -0.4949146266E-01
          0                 3           5             8    8     1      -0.2502108795E-02       8    8    1      -0.4591281095E+01      0.6627272089E+01      0.1321329138E+03     -0.2502108795E-02
          0                 4           4             8    8     1      -0.1233142579E-03       8    8    1      -0.2296330940E+00      0.3318748396E+00      0.6627272089E+01     -0.1233142579E-03
          0                 5           2             2    8     1      -0.7076392028E-05       8    8    1      -0.1143795822E-01      0.1889974368E-01      0.3318748396E+00     -0.7076392028E-05

    ------------------------------------------------
       NWT REQUIRED            5 OUTER ITERATIONS 
       AND A TOTAL OF         27 INNER ITERATIONS.
    ------------------------------------------------
                                                   Max.-Head-Change                        Max.-Flux-Residual
  Residual-Control   Outer-Iter.   Inner-Iter.     Column Row Layer    Max.-Head-Change    Column Row Layer    Max.-Flux-Residual            L2-New               L2-Old           Solver-Max-Delh
          0                 1           8             6    9     1      -0.5065360804E-01       1    9    1      -0.3522014203E+02      0.9372601025E+02      0.1889974368E-01     -0.5065360804E-01
          0                 2           6             6    9     1       0.4270096523E-02       1    9    1       0.3449319054E+01      0.9188972258E+01      0.9372601025E+02      0.4270096523E-02
          0                 3           4             7    9     1       0.2239028486E-03       1    9    1       0.1749652218E+00      0.4760735205E+00      0.9188972258E+01      0.2239028486E-03
          0                 4           3             6    9     2       0.1051601946E-04       1    1    1       0.1249927131E-01      0.2583192796E-01      0.4760735205E+00      0.1051601946E-04

    ------------------------------------------------
       NWT REQUIRED            4 OUTER ITERATIONS 
       AND A TOTAL OF         21 INNER ITERATIONS.
    ------------------------------------------------
                                                   Max.-Head-Change                        Max.-Flux-Residual
  Residual-Control   Outer-Iter.   Inner-Iter.     Column Row Layer    Max.-Head-Change    Column Row Layer    Max.-Flux-Residual            L2-New               L2-Old           Solver-Max-Delh
          0                 1           7             1    1     3      -0.1080370755E-01       1    1    1      -0.7739224057E+01      0.1706087751E+02      0.2583192796E-01     -0.1080370755E-01
          0                 2           5             1    1     3       0.9320494397E-03       1    1    1       0.7780380880E+00      0.1706280082E+01      0.1706087751E+02      0.9320494397E-03
          0                 3           3             1    1     3       0.4682060314E-04       1    1    1       0.3419919044E-01      0.8220293780E-01      0.1706280082E+01      0.4682060314E-04

    ------------------------------------------------
       NWT REQUIRED            3 OUTER ITERATIONS 
       AND A TOTAL OF         15 INNER ITERATIONS.
    ------------------------------------------------
                                                   Max.-Head-Change                        Max.-Flux-Residual
  Residual-Control   Outer-Iter.   Inner-Iter.     Column Row Layer    Max.-Head-Change    Column Row Layer    Max.-Flux-Residual            L2-New               L2-Old           Solver-Max-Delh
          0                 1           7             9    9     1       0.1498117281E-01       8    9    1       0.8872195145E+01      0.1936734077E+02      0.8220293780E-01      0.1498117281E-01
          0                 2           5             9    9     1      -0.1266158757E-02       7    9    1      -0.8701888032E+00      0.1896210500E+01      0.1936734077E+02     -0.1266158757E-02
          0                 3           4             8    9     1      -0.6284883402E-04       8    9    1      -0.4781965970E-01      0.9899803740E-01      0.1896210500E+01     -0.6284883402E-04

    ------------------------------------------------
       NWT REQUIRED            3 OUTER ITERATIONS 
       AND A TOTAL OF         16 INNER ITERATIONS.
    ------------------------------------------------
                                                   Max.-Head-Change                        Max.-Flux-Residual
  Residual-Control   Outer-Iter.   Inner-Iter.     Column Row Layer    Max.-Head-Change    Column Row Layer    Max.-Flux-Residual            L2-New               L2-Old           Solver-Max-Delh
          0                 1           7             9    9     1       0.9798823262E-02       8    9    1       0.5501381500E+01      0.1430746472E+02      0.9899803740E-01      0.9798823262E-02
          0                 2           5             9    9     1      -0.8229571395E-03       7    9    1      -0.5402421280E+00      0.1392321295E+01      0.1430746472E+02     -0.8229571395E-03
          0                 3           3             9    9     1      -0.4485433917E-04       1    9    1      -0.3553279536E-01      0.7773872888E-01      0.1392321295E+01     -0.4485433917E-04

    ------------------------------------------------
       NWT REQUIRED            3 OUTER ITERATIONS 
       AND A TOTAL OF         15 INNER ITERATIONS.
    ------------------------------------------------
                                                   Max.-Head-Change                        Max.-Flux-Residual
  Residual-Control   Outer-Iter.   Inner-Iter.     Column Row Layer    Max.-Head-Change    Column Row Layer    Max.-Flux-Residual            L2-New               L2-Old           Solver-Max-Delh
          0                 1           6             1    9     1       0.4025601169E-02       1    9    1       0.3458238717E+01      0.7296857520E+01      0.7773872888E-01      0.4025601169E-02
          0                 2           5             1    9     1      -0.3386327948E-03       1    9    1      -0.3411097478E+00      0.7117826680E+00      0.7296857520E+01     -0.3386327948E-03
          0                 3           3             1    8     1      -0.1958769104E-04       1    9    1      -0.1578045974E-01      0.4191596379E-01      0.7117826680E+00     -0.1958769104E-04

    ------------------------------------------------
       NWT REQUIRED            3 OUTER ITERATIONS 
       AND A TOTAL OF         14 INNER ITERATIONS.
    ------------------------------------------------
                                                   Max.-Head-Change                        Max.-Flux-Residual
  Residual-Control   Outer-Iter.   Inner-Iter.     Column Row Layer    Max.-Head-Change    Column Row Layer    Max.-Flux-Residual            L2-New               L2-Old           Solver-Max-Delh
          0                 1           6             1    9     1       0.2103318482E-02       1    9    1       0.1856517629E+01      0.3521679945E+01      0.4191596379E-01      0.2103318482E-02
          0                 2           4             1    9     1      -0.1819709853E-03       1    9    1      -0.1879325061E+00      0.3538712567E+00      0.3521679945E+01     -0.1819709853E-03
          0                 3           2             1    9     1      -0.8985590944E-05       1    9    1      -0.1141605841E-01      0.2508909327E-01      0.3538712567E+00     -0.8985590944E-05

    ------------------------------------------------
       NWT REQUIRED            3 OUTER ITERATIONS 
       AND A TOTAL OF         12 INNER ITERATIONS.
    ------------------------------------------------
                                                   Max.-Head-Change                        Max.-Flux-Residual
  Residual-Control   Outer-Iter.   Inner-Iter.     Column Row Layer    Max.-Head-Change    Column Row Layer    Max.-Flux-Residual            L2-New               L2-Old           Solver-Max-Delh
          0                 1           5             1    9     1       0.9875997229E-03       1    9    1       0.8993054746E+00      0.1971974655E+01      0.2508909327E-01      0.9875997229E-03
          0                 2           4             1    9     1      -0.8256771592E-04       1    9    1      -0.8771014877E-01      0.1870716127E+00      0.1971974655E+01     -0.8256771592E-04

    ------------------------------------------------
       NWT REQUIRED            2 OUTER ITERATIONS 
       AND A TOTAL OF          9 INNER ITERATIONS.
    ------------------------------------------------
                                                   Max.-Head-Change                        Max.-Flux-Residual
  Residual-Control   Outer-Iter.   Inner-Iter.     Column Row Layer    Max.-Head-Change    Column Row Layer    Max.-Flux-Residual            L2-New               L2-Old           Solver-Max-Delh
          0                 1           5             9    9     1      -0.4821587141E-03       1    9    1       0.3970014098E+00      0.1029230667E+01      0.1870716127E+00     -0.4821587141E-03
          0                 2           4             9    9     1       0.4065948587E-04       1    9    1      -0.3992797027E-01      0.1048624217E+00      0.1029230667E+01      0.4065948587E-04

    ------------------------------------------------
       NWT REQUIRED            2 OUTER ITERATIONS 
       AND A TOTAL OF          9 INNER ITERATIONS.
    ------------------------------------------------
                                                   Max.-Head-Change                        Max.-Flux-Residual
  Residual-Control   Outer-Iter.   Inner-Iter.     Column Row Layer    Max.-Head-Change    Column Row Layer    Max.-Flux-Residual            L2-New               L2-Old           Solver-Max-Delh
          0                 1           4             1    9     1       0.1853838372E-03       1    9    1       0.1738096548E+00      0.4193681701E+00      0.1048624217E+00      0.1853838372E-03
          0                 2           3             1    1     1      -0.1783211857E-04       1    1    1      -0.2139392705E-01      0.4305134409E-01      0.4193681701E+00     -0.1783211857E-04

    ------------------------------------------------
       NWT REQUIRED            2 OUTER ITERATIONS 
       AND A TOTAL OF          7 INNER ITERATIONS.
    ------------------------------------------------

 OUTPUT CONTROL FOR STRESS PERIOD     21   TIME STEP     2
    PRINT BUDGET
    SAVE HEAD FOR ALL LAYERS
    SAVE BUDGET
 UBDSV1 SAVING "         STORAGE" ON UNIT7011 AT TIME STEP    2, STRESS PERIOD  21
 UBDSV2 SAVING "   CONSTANT HEAD" ON UNIT7011 AT TIME STEP    2, STRESS PERIOD  21
 UBDSV1 SAVING "FLOW RIGHT FACE " ON UNIT7011 AT TIME STEP    2, STRESS PERIOD  21
 UBDSV1 SAVING "FLOW FRONT FACE " ON UNIT7011 AT TIME STEP    2, STRESS PERIOD  21
 UBDSV1 SAVING "FLOW LOWER FACE " ON UNIT7011 AT TIME STEP    2, STRESS PERIOD  21
 
 
 
 
 
 
 
 
 UBDSV3 SAVING "FARM  NET  RECH." ON UNIT7011 AT TIME STEP    2, STRESS PERIOD  21
 UBDSV4 SAVING " GHOST-NODE HEAD" ON UNIT7011 AT TIME STEP    2, STRESS PERIOD  21

 HEAD WILL BE SAVED ON UNIT 2211 AT END OF TIME STEP     2, STRESS PERIOD     21
1
  VOLUMETRIC BUDGET FOR ENTIRE MODEL AT END OF TIME STEP    2 IN STRESS PERIOD     21
  ------------------------------------------------------------------------------

     CUMULATIVE VOLUMES      L**3       RATES FOR THIS TIME STEP      L**3/T
     ------------------                 ------------------------

           IN:                                      IN:
           ---                                      ---
             STORAGE =      304230.3750               STORAGE =         633.9576
       CONSTANT HEAD =           0.0000         CONSTANT HEAD =           0.0000
          FARM WELLS =           0.0000            FARM WELLS =           0.0000
    FARM  NET  RECH. =     1525479.5000      FARM  NET  RECH. =        2567.5886
     GHOST-NODE HEAD =     5580897.0000       GHOST-NODE HEAD =        5448.3120

            TOTAL IN =     7410607.0000              TOTAL IN =        8649.8584

          OUT:                                     OUT:
          ----                                     ----
             STORAGE =     3810179.0000               STORAGE =           0.0000
       CONSTANT HEAD =           0.0000         CONSTANT HEAD =           0.0000
          FARM WELLS =     2331596.0000            FARM WELLS =        6757.7847
    FARM  NET  RECH. =           0.0000      FARM  NET  RECH. =           0.0000
     GHOST-NODE HEAD =     1268830.5000       GHOST-NODE HEAD =        1892.0894

           TOTAL OUT =     7410605.5000             TOTAL OUT =        8649.8740

            IN - OUT =           1.5000              IN - OUT =      -1.5625E-02

 PERCENT DISCREPANCY =           0.00     PERCENT DISCREPANCY =          -0.00






          TIME SUMMARY AT END OF TIME STEP     2 IN STRESS PERIOD     21
                    SECONDS     MINUTES      HOURS       DAYS        YEARS
                    -----------------------------------------------------------
   TIME STEP LENGTH 1.31414E+06  21902.      365.04      15.210     4.16427E-02
 STRESS PERIOD TIME 2.62829E+06  43805.      730.08      30.420     8.32854E-02
         TOTAL TIME 5.51941E+07 9.19901E+05  15332.      638.82      1.7490    
1
1
  FLUX ACROSS PARENT-CHILD INTERFACE AT TIME STEP  2 IN STRESS PERIOD   21
  ------------------------------------------------------------------------
 G-N FLUX        PARENT        CHILD         DIFFERENCE      % DIFFERENCE
  RATE IN:      5.4484E+03    5.4483E+03     5.7617E-02        0.0011
 RATE OUT:      1.8924E+03    1.8921E+03     2.9370E-01        0.0155
1
                            STRESS PERIOD NO.     22, LENGTH =   30.42000    
                            -----------------------------------------------

                              NUMBER OF TIME STEPS =     2

                               MULTIPLIER FOR DELT =     1.000

                            INITIAL TIME STEP SIZE =   15.21000    

 Parameter:  WELLS1
 WELL NO. LAYER    ROW    COL  F-WELL ID    FARM ID         QMAX         QMAXRESET       LGRGRID         
 --------------------------------------------------------------------------------------------------------
       1      1      8      2          2          1      5.0000E+03              0              0
       2      1      8      8          3          1      5.0000E+03              0              0

 NUMBER OF ACTIVE FARM WELLS:        2

 FARM-ID  NUMBER OF WELLS PER FARM  TOTAL MAX.CAPACITY PER FARM
       1                         2                   10000.0000
       2                         0                       0.0000
       3                         0                       0.0000
       4                         0                       0.0000
       5                         0                       0.0000
       6                         0                       0.0000
       7                         0                       0.0000
       8                         0                       0.0000

Transpiratory and Evaporative Fractions of Crop Consumptive Use
    % Transpiration % Evap. for Precip. % Evap. for Irrig.
    2          0.945          0.055          0.055
    3          0.894          0.106          0.106

FRACTIONS OF IN-EFFICIENT LOSSES TO SW-RUNOFF FROM 
     PRECIPITATION:  IRRIGATION:
    2          0.400          0.300
    3          0.600          0.500
 
 SOLVING FOR HEAD 
                                                   Max.-Head-Change                        Max.-Flux-Residual
  Residual-Control   Outer-Iter.   Inner-Iter.     Column Row Layer    Max.-Head-Change    Column Row Layer    Max.-Flux-Residual            L2-New               L2-Old           Solver-Max-Delh
          0                 1           9             3    3     1      -0.1710660825E+00       8    8    1       0.1166795405E+03      0.3092252325E+03      0.4305134409E-01     -0.1710660825E+00
          0                 2           7             3    3     1       0.1473452403E-01       8    8    1      -0.1176399096E+02      0.3077861479E+02      0.3092252325E+03      0.1473452403E-01
          0                 3           5             3    3     1       0.7332440810E-03       8    8    1      -0.5889806553E+00      0.1550537004E+01      0.3077861479E+02      0.7332440810E-03
          0                 4           4             3    3     1       0.3751866308E-04       8    8    1      -0.2942444180E-01      0.8028913868E-01      0.1550537004E+01      0.3751866308E-04

    ------------------------------------------------
       NWT REQUIRED            4 OUTER ITERATIONS 
       AND A TOTAL OF         25 INNER ITERATIONS.
    ------------------------------------------------
                                                   Max.-Head-Change                        Max.-Flux-Residual
  Residual-Control   Outer-Iter.   Inner-Iter.     Column Row Layer    Max.-Head-Change    Column Row Layer    Max.-Flux-Residual            L2-New               L2-Old           Solver-Max-Delh
          0                 1           9             8    8     1       0.4765733455E+00       2    8    1       0.6746050397E+03      0.9687859144E+03      0.8028913868E-01      0.4765733455E+00
          0                 2           7             8    8     1      -0.4403790904E-01       8    8    1      -0.7319367892E+02      0.1043884596E+03      0.9687859144E+03     -0.4403790904E-01
          0                 3           5             8    8     1      -0.2231574011E-02       8    8    1      -0.3678786405E+01      0.5236710484E+01      0.1043884596E+03     -0.2231574011E-02
          0                 4           4             8    8     1      -0.1118136395E-03       8    8    1      -0.1840266908E+00      0.2625291993E+00      0.5236710484E+01     -0.1118136395E-03
          0                 5           2             8    8     1      -0.9183492814E-05       8    8    1      -0.9176166554E-02      0.1685266324E-01      0.2625291993E+00     -0.9183492814E-05

    ------------------------------------------------
       NWT REQUIRED            5 OUTER ITERATIONS 
       AND A TOTAL OF         27 INNER ITERATIONS.
    ------------------------------------------------
                                                   Max.-Head-Change                        Max.-Flux-Residual
  Residual-Control   Outer-Iter.   Inner-Iter.     Column Row Layer    Max.-Head-Change    Column Row Layer    Max.-Flux-Residual            L2-New               L2-Old           Solver-Max-Delh
          0                 1           7             1    1     3      -0.2073859972E-01       1    1    1      -0.1737223550E+02      0.3525471166E+02      0.1685266324E-01     -0.2073859972E-01
          0                 2           5             1    1     3       0.1789203089E-02       1    1    1       0.1751773554E+01      0.3534053645E+01      0.3525471166E+02      0.1789203089E-02
          0                 3           4             1    1     3       0.9036106437E-04       1    1    1       0.8581182826E-01      0.1748890242E+00      0.3534053645E+01      0.9036106437E-04

    ------------------------------------------------
       NWT REQUIRED            3 OUTER ITERATIONS 
       AND A TOTAL OF         16 INNER ITERATIONS.
    ------------------------------------------------
                                                   Max.-Head-Change                        Max.-Flux-Residual
  Residual-Control   Outer-Iter.   Inner-Iter.     Column Row Layer    Max.-Head-Change    Column Row Layer    Max.-Flux-Residual            L2-New               L2-Old           Solver-Max-Delh
          0                 1           7             9    9     1       0.2306376801E-01       8    9    1       0.1370218752E+02      0.3320683415E+02      0.1748890242E+00      0.2306376801E-01
          0                 2           5             9    9     1      -0.1948182128E-02       7    9    1      -0.1341694117E+01      0.3256513006E+01      0.3320683415E+02     -0.1948182128E-02
          0                 3           4             9    9     1      -0.1027552683E-03       8    9    1      -0.7197443384E-01      0.1718405497E+00      0.3256513006E+01     -0.1027552683E-03
          0                 4           1             8    9     1      -0.3769057557E-05       8    9    1      -0.7270266768E-02      0.1109396825E-01      0.1718405497E+00     -0.3769057557E-05

    ------------------------------------------------
       NWT REQUIRED            4 OUTER ITERATIONS 
       AND A TOTAL OF         17 INNER ITERATIONS.
    ------------------------------------------------
                                                   Max.-Head-Change                        Max.-Flux-Residual
  Residual-Control   Outer-Iter.   Inner-Iter.     Column Row Layer    Max.-Head-Change    Column Row Layer    Max.-Flux-Residual            L2-New               L2-Old           Solver-Max-Delh
          0                 1           7             9    9     1       0.1484260866E-01       1    9    1       0.1196874555E+02      0.2542111155E+02      0.1109396825E-01      0.1484260866E-01
          0                 2           5             9    9     1      -0.1252898231E-02       1    9    1      -0.1173776302E+01      0.2487222233E+01      0.2542111155E+02     -0.1252898231E-02
          0                 3           4             9    9     1      -0.6856505021E-04       1    9    1      -0.6280383904E-01      0.1347803478E+00      0.2487222233E+01     -0.6856505021E-04

    ------------------------------------------------
       NWT REQUIRED            3 OUTER ITERATIONS 
       AND A TOTAL OF         16 INNER ITERATIONS.
    ------------------------------------------------
                                                   Max.-Head-Change                        Max.-Flux-Residual
  Residual-Control   Outer-Iter.   Inner-Iter.     Column Row Layer    Max.-Head-Change    Column Row Layer    Max.-Flux-Residual            L2-New               L2-Old           Solver-Max-Delh
          0                 1           7             1    9     1       0.8854442907E-02       1    9    1       0.7833775787E+01      0.1422744030E+02      0.1347803478E+00      0.8854442907E-02
          0                 2           5             1    9     1      -0.7485383331E-03       1    9    1      -0.7692676408E+00      0.1393708260E+01      0.1422744030E+02     -0.7485383331E-03
          0                 3           3             1    9     1      -0.4003074463E-04       1    9    1      -0.4027762148E-01      0.7618116176E-01      0.1393708260E+01     -0.4003074463E-04

    ------------------------------------------------
       NWT REQUIRED            3 OUTER ITERATIONS 
       AND A TOTAL OF         15 INNER ITERATIONS.
    ------------------------------------------------
                                                   Max.-Head-Change                        Max.-Flux-Residual
  Residual-Control   Outer-Iter.   Inner-Iter.     Column Row Layer    Max.-Head-Change    Column Row Layer    Max.-Flux-Residual            L2-New               L2-Old           Solver-Max-Delh
          0                 1           6             1    9     1       0.4734296228E-02       1    9    1       0.4260989188E+01      0.7404444656E+01      0.7618116176E-01      0.4734296228E-02
          0                 2           4             1    9     1      -0.3948958760E-03       1    9    1      -0.4087718216E+00      0.7214281596E+00      0.7404444656E+01     -0.3948958760E-03
          0                 3           3             1    9     1      -0.2493176369E-04       1    9    1      -0.2880834800E-01      0.4638192339E-01      0.7214281596E+00     -0.2493176369E-04

    ------------------------------------------------
       NWT REQUIRED            3 OUTER ITERATIONS 
       AND A TOTAL OF         13 INNER ITERATIONS.
    ------------------------------------------------
                                                   Max.-Head-Change                        Max.-Flux-Residual
  Residual-Control   Outer-Iter.   Inner-Iter.     Column Row Layer    Max.-Head-Change    Column Row Layer    Max.-Flux-Residual            L2-New               L2-Old           Solver-Max-Delh
          0                 1           6             1    9     1       0.2256319049E-02       1    9    1       0.2062142395E+01      0.3992213223E+01      0.4638192339E-01      0.2256319049E-02
          0                 2           4             1    9     1      -0.1908355350E-03       1    9    1      -0.2015470077E+00      0.3928782166E+00      0.3992213223E+01     -0.1908355350E-03
          0                 3           3             1    9     1      -0.1231979348E-04       1    9    1      -0.1296547987E-01      0.2948722962E-01      0.3928782166E+00     -0.1231979348E-04

    ------------------------------------------------
       NWT REQUIRED            3 OUTER ITERATIONS 
       AND A TOTAL OF         13 INNER ITERATIONS.
    ------------------------------------------------
                                                   Max.-Head-Change                        Max.-Flux-Residual
  Residual-Control   Outer-Iter.   Inner-Iter.     Column Row Layer    Max.-Head-Change    Column Row Layer    Max.-Flux-Residual            L2-New               L2-Old           Solver-Max-Delh
          0                 1           5             1    9     1       0.9885346834E-03       1    9    1       0.9184324706E+00      0.1997859087E+01      0.2948722962E-01      0.9885346834E-03
          0                 2           4             1    9     1      -0.8372158248E-04       1    9    1      -0.9047783527E-01      0.1944822639E+00      0.1997859087E+01     -0.8372158248E-04

    ------------------------------------------------
       NWT REQUIRED            2 OUTER ITERATIONS 
       AND A TOTAL OF          9 INNER ITERATIONS.
    ------------------------------------------------
                                                   Max.-Head-Change                        Max.-Flux-Residual
  Residual-Control   Outer-Iter.   Inner-Iter.     Column Row Layer    Max.-Head-Change    Column Row Layer    Max.-Flux-Residual            L2-New               L2-Old           Solver-Max-Delh
          0                 1           5             1    9     1       0.4159121308E-03       1    9    1       0.3877295259E+00      0.8410839217E+00      0.1944822639E+00      0.4159121308E-03
          0                 2           3             1    9     1      -0.3706729722E-04       1    9    1      -0.4338849976E-01      0.8816235299E-01      0.8410839217E+00     -0.3706729722E-04

    ------------------------------------------------
       NWT REQUIRED            2 OUTER ITERATIONS 
       AND A TOTAL OF          8 INNER ITERATIONS.
    ------------------------------------------------
                                                   Max.-Head-Change                        Max.-Flux-Residual
  Residual-Control   Outer-Iter.   Inner-Iter.     Column Row Layer    Max.-Head-Change    Column Row Layer    Max.-Flux-Residual            L2-New               L2-Old           Solver-Max-Delh
          0                 1           4             2    9     1       0.1414975760E-03       1    9    1       0.1169211057E+00      0.2805293670E+00      0.8816235299E-01      0.1414975760E-03
          0                 2           3             2    9     1      -0.1411108623E-04       1    1    1      -0.1993452257E-01      0.3729415637E-01      0.2805293670E+00     -0.1411108623E-04

    ------------------------------------------------
       NWT REQUIRED            2 OUTER ITERATIONS 
       AND A TOTAL OF          7 INNER ITERATIONS.
    ------------------------------------------------

 OUTPUT CONTROL FOR STRESS PERIOD     22   TIME STEP     1
    SAVE BUDGET
 UBDSV1 SAVING "         STORAGE" ON UNIT7011 AT TIME STEP    1, STRESS PERIOD  22
 UBDSV2 SAVING "   CONSTANT HEAD" ON UNIT7011 AT TIME STEP    1, STRESS PERIOD  22
 UBDSV1 SAVING "FLOW RIGHT FACE " ON UNIT7011 AT TIME STEP    1, STRESS PERIOD  22
 UBDSV1 SAVING "FLOW FRONT FACE " ON UNIT7011 AT TIME STEP    1, STRESS PERIOD  22
 UBDSV1 SAVING "FLOW LOWER FACE " ON UNIT7011 AT TIME STEP    1, STRESS PERIOD  22
 
 
 
 
 
 
 
 
 UBDSV3 SAVING "FARM  NET  RECH." ON UNIT7011 AT TIME STEP    1, STRESS PERIOD  22
 UBDSV4 SAVING " GHOST-NODE HEAD" ON UNIT7011 AT TIME STEP    1, STRESS PERIOD  22
1
  FLUX ACROSS PARENT-CHILD INTERFACE AT TIME STEP  1 IN STRESS PERIOD   22
  ------------------------------------------------------------------------
 G-N FLUX        PARENT        CHILD         DIFFERENCE      % DIFFERENCE
  RATE IN:      4.9137E+03    4.9137E+03    -2.4902E-02       -0.0005
 RATE OUT:      1.9524E+03    1.9521E+03     3.4631E-01        0.0177
 
 SOLVING FOR HEAD 
                                                   Max.-Head-Change                        Max.-Flux-Residual
  Residual-Control   Outer-Iter.   Inner-Iter.     Column Row Layer    Max.-Head-Change    Column Row Layer    Max.-Flux-Residual            L2-New               L2-Old           Solver-Max-Delh
          0                 1           9             2    8     1      -0.4579869372E+00       2    8    1      -0.7229250564E+03      0.1044064232E+04      0.3729415637E-01     -0.4579869372E+00
          0                 2           7             2    8     1       0.3870108371E-01       2    8    1       0.7022335198E+02      0.1017201255E+03      0.1044064232E+04      0.3870108371E-01
          0                 3           5             2    8     1       0.1952223362E-02       2    8    1       0.3496345918E+01      0.5059329066E+01      0.1017201255E+03      0.1952223362E-02
          0                 4           4             2    8     1       0.9958528353E-04       2    8    1       0.1747582607E+00      0.2545825654E+00      0.5059329066E+01      0.9958528353E-04

    ------------------------------------------------
       NWT REQUIRED            4 OUTER ITERATIONS 
       AND A TOTAL OF         25 INNER ITERATIONS.
    ------------------------------------------------
                                                   Max.-Head-Change                        Max.-Flux-Residual
  Residual-Control   Outer-Iter.   Inner-Iter.     Column Row Layer    Max.-Head-Change    Column Row Layer    Max.-Flux-Residual            L2-New               L2-Old           Solver-Max-Delh
          0                 1           9             8    8     1       0.4894855249E+00       2    8    1       0.7355777173E+03      0.1060359774E+04      0.2545825654E+00      0.4894855249E+00
          0                 2           7             8    8     1      -0.4278316076E-01       8    8    1      -0.7588543054E+02      0.1089055374E+03      0.1060359774E+04     -0.4278316076E-01
          0                 3           5             8    8     1      -0.2162791625E-02       8    8    1      -0.3812062461E+01      0.5461284670E+01      0.1089055374E+03     -0.2162791625E-02
          0                 4           4             8    8     1      -0.1111132828E-03       8    8    1      -0.1906751210E+00      0.2732665265E+00      0.5461284670E+01     -0.1111132828E-03
          0                 5           2             1    9     1      -0.7111056741E-05       1    9    1      -0.1090453786E-01      0.2025593803E-01      0.2732665265E+00     -0.7111056741E-05

    ------------------------------------------------
       NWT REQUIRED            5 OUTER ITERATIONS 
       AND A TOTAL OF         27 INNER ITERATIONS.
    ------------------------------------------------
                                                   Max.-Head-Change                        Max.-Flux-Residual
  Residual-Control   Outer-Iter.   Inner-Iter.     Column Row Layer    Max.-Head-Change    Column Row Layer    Max.-Flux-Residual            L2-New               L2-Old           Solver-Max-Delh
          0                 1           8             6    9     1      -0.2778466692E-01       1    9    1      -0.1663979111E+02      0.4935359751E+02      0.2025593803E-01     -0.2778466692E-01
          0                 2           6             6    9     2       0.2361996556E-02       1    9    1       0.1620878297E+01      0.4849187903E+01      0.4935359751E+02      0.2361996556E-02
          0                 3           4             6    9     2       0.1179069816E-03       1    9    1       0.8359699557E-01      0.2403354844E+00      0.4849187903E+01      0.1179069816E-03
          0                 4           3             1    1     1       0.1130040083E-04       1    1    1       0.1521996292E-01      0.3091537750E-01      0.2403354844E+00      0.1130040083E-04

    ------------------------------------------------
       NWT REQUIRED            4 OUTER ITERATIONS 
       AND A TOTAL OF         21 INNER ITERATIONS.
    ------------------------------------------------
                                                   Max.-Head-Change                        Max.-Flux-Residual
  Residual-Control   Outer-Iter.   Inner-Iter.     Column Row Layer    Max.-Head-Change    Column Row Layer    Max.-Flux-Residual            L2-New               L2-Old           Solver-Max-Delh
          0                 1           6             9    9     1       0.8379569542E-02       8    9    1       0.5133505911E+01      0.1156321870E+02      0.3091537750E-01      0.8379569542E-02
          0                 2           5             9    9     1      -0.7051908899E-03       8    9    1      -0.5039291630E+00      0.1137293274E+01      0.1156321870E+02     -0.7051908899E-03
          0                 3           3             9    9     1      -0.3471651312E-04       7    9    1      -0.2662942442E-01      0.5890844102E-01      0.1137293274E+01     -0.3471651312E-04

    ------------------------------------------------
       NWT REQUIRED            3 OUTER ITERATIONS 
       AND A TOTAL OF         14 INNER ITERATIONS.
    ------------------------------------------------
                                                   Max.-Head-Change                        Max.-Flux-Residual
  Residual-Control   Outer-Iter.   Inner-Iter.     Column Row Layer    Max.-Head-Change    Column Row Layer    Max.-Flux-Residual            L2-New               L2-Old           Solver-Max-Delh
          0                 1           7             9    9     1       0.1242737888E-01       1    9    1       0.7199597955E+01      0.1858461001E+02      0.5890844102E-01      0.1242737888E-01
          0                 2           5             9    9     1      -0.1051655380E-02       1    9    1      -0.7092676068E+00      0.1823524074E+01      0.1858461001E+02     -0.1051655380E-02
          0                 3           4             9    9     1      -0.5607233205E-04       7    9    1      -0.3783657117E-01      0.9791707905E-01      0.1823524074E+01     -0.5607233205E-04

    ------------------------------------------------
       NWT REQUIRED            3 OUTER ITERATIONS 
       AND A TOTAL OF         16 INNER ITERATIONS.
    ------------------------------------------------
                                                   Max.-Head-Change                        Max.-Flux-Residual
  Residual-Control   Outer-Iter.   Inner-Iter.     Column Row Layer    Max.-Head-Change    Column Row Layer    Max.-Flux-Residual            L2-New               L2-Old           Solver-Max-Delh
          0                 1           7             9    9     1       0.6865826434E-02       1    9    1       0.5563933167E+01      0.1252425392E+02      0.9791707905E-01      0.6865826434E-02
          0                 2           5             9    9     1      -0.5766101146E-03       1    9    1      -0.5443407774E+00      0.1224075109E+01      0.1252425392E+02     -0.5766101146E-03
          0                 3           3             4    9     1      -0.3283361067E-04       1    9    1      -0.2624613192E-01      0.6881744911E-01      0.1224075109E+01     -0.3283361067E-04

    ------------------------------------------------
       NWT REQUIRED            3 OUTER ITERATIONS 
       AND A TOTAL OF         15 INNER ITERATIONS.
    ------------------------------------------------
                                                   Max.-Head-Change                        Max.-Flux-Residual
  Residual-Control   Outer-Iter.   Inner-Iter.     Column Row Layer    Max.-Head-Change    Column Row Layer    Max.-Flux-Residual            L2-New               L2-Old           Solver-Max-Delh
          0                 1           6             1    9     1       0.3769218200E-02       1    9    1       0.3272165403E+01      0.6375965781E+01      0.6881744911E-01      0.3769218200E-02
          0                 2           4             1    9     1      -0.3194650687E-03       1    9    1      -0.3201204558E+00      0.6301083817E+00      0.6375965781E+01     -0.3194650687E-03
          0                 3           3             1    9     1      -0.1534017477E-04       1    9    1      -0.1816890616E-01      0.3380539968E-01      0.6301083817E+00     -0.1534017477E-04

    ------------------------------------------------
       NWT REQUIRED            3 OUTER ITERATIONS 
       AND A TOTAL OF         13 INNER ITERATIONS.
    ------------------------------------------------
                                                   Max.-Head-Change                        Max.-Flux-Residual
  Residual-Control   Outer-Iter.   Inner-Iter.     Column Row Layer    Max.-Head-Change    Column Row Layer    Max.-Flux-Residual            L2-New               L2-Old           Solver-Max-Delh
          0                 1           6             1    9     1       0.1846875333E-02       1    9    1       0.1658010165E+01      0.3182550740E+01      0.3380539968E-01      0.1846875333E-02
          0                 2           4             1    9     1      -0.1547559888E-03       1    9    1      -0.1570465266E+00      0.3147612983E+00      0.3182550740E+01     -0.1547559888E-03
          0                 3           2             1    9     1      -0.8968496993E-05       1    9    1      -0.1325013826E-01      0.2086894178E-01      0.3147612983E+00     -0.8968496993E-05

    ------------------------------------------------
       NWT REQUIRED            3 OUTER ITERATIONS 
       AND A TOTAL OF         12 INNER ITERATIONS.
    ------------------------------------------------
                                                   Max.-Head-Change                        Max.-Flux-Residual
  Residual-Control   Outer-Iter.   Inner-Iter.     Column Row Layer    Max.-Head-Change    Column Row Layer    Max.-Flux-Residual            L2-New               L2-Old           Solver-Max-Delh
          0                 1           5             1    9     1       0.8054042639E-03       1    9    1       0.7293640997E+00      0.1679171451E+01      0.2086894178E-01      0.8054042639E-03
          0                 2           4             1    9     1      -0.6559370787E-04       1    9    1      -0.6662157143E-01      0.1672118253E+00      0.1679171451E+01     -0.6559370787E-04

    ------------------------------------------------
       NWT REQUIRED            2 OUTER ITERATIONS 
       AND A TOTAL OF          9 INNER ITERATIONS.
    ------------------------------------------------
                                                   Max.-Head-Change                        Max.-Flux-Residual
  Residual-Control   Outer-Iter.   Inner-Iter.     Column Row Layer    Max.-Head-Change    Column Row Layer    Max.-Flux-Residual            L2-New               L2-Old           Solver-Max-Delh
          0                 1           5             9    9     1      -0.3866072297E-03       1    9    1       0.3180835583E+00      0.7895300994E+00      0.1672118253E+00     -0.3866072297E-03
          0                 2           3             1    9     1      -0.3371449520E-04       1    9    1      -0.3913178784E-01      0.8361730432E-01      0.7895300994E+00     -0.3371449520E-04

    ------------------------------------------------
       NWT REQUIRED            2 OUTER ITERATIONS 
       AND A TOTAL OF          8 INNER ITERATIONS.
    ------------------------------------------------
                                                   Max.-Head-Change                        Max.-Flux-Residual
  Residual-Control   Outer-Iter.   Inner-Iter.     Column Row Layer    Max.-Head-Change    Column Row Layer    Max.-Flux-Residual            L2-New               L2-Old           Solver-Max-Delh
          0                 1           4             1    9     1       0.1351769670E-03       1    9    1       0.1364925301E+00      0.2822978143E+00      0.8361730432E-01      0.1351769670E-03
          0                 2           2             1    9     1      -0.1551779799E-04       1    9    1      -0.2381080762E-01      0.3575984956E-01      0.2822978143E+00     -0.1551779799E-04

    ------------------------------------------------
       NWT REQUIRED            2 OUTER ITERATIONS 
       AND A TOTAL OF          6 INNER ITERATIONS.
    ------------------------------------------------

 OUTPUT CONTROL FOR STRESS PERIOD     22   TIME STEP     2
    SAVE BUDGET
 UBDSV1 SAVING "         STORAGE" ON UNIT7011 AT TIME STEP    2, STRESS PERIOD  22
 UBDSV2 SAVING "   CONSTANT HEAD" ON UNIT7011 AT TIME STEP    2, STRESS PERIOD  22
 UBDSV1 SAVING "FLOW RIGHT FACE " ON UNIT7011 AT TIME STEP    2, STRESS PERIOD  22
 UBDSV1 SAVING "FLOW FRONT FACE " ON UNIT7011 AT TIME STEP    2, STRESS PERIOD  22
 UBDSV1 SAVING "FLOW LOWER FACE " ON UNIT7011 AT TIME STEP    2, STRESS PERIOD  22
 
 
 
 
 
 
 
 
 UBDSV3 SAVING "FARM  NET  RECH." ON UNIT7011 AT TIME STEP    2, STRESS PERIOD  22
 UBDSV4 SAVING " GHOST-NODE HEAD" ON UNIT7011 AT TIME STEP    2, STRESS PERIOD  22
1
  VOLUMETRIC BUDGET FOR ENTIRE MODEL AT END OF TIME STEP    2 IN STRESS PERIOD     22
  ------------------------------------------------------------------------------

     CUMULATIVE VOLUMES      L**3       RATES FOR THIS TIME STEP      L**3/T
     ------------------                 ------------------------

           IN:                                      IN:
           ---                                      ---
             STORAGE =      310021.1562               STORAGE =         187.1014
       CONSTANT HEAD =           0.0000         CONSTANT HEAD =           0.0000
          FARM WELLS =           0.0000            FARM WELLS =           0.0000
    FARM  NET  RECH. =     1593390.7500      FARM  NET  RECH. =        2232.4556
     GHOST-NODE HEAD =     5729116.5000       GHOST-NODE HEAD =        4831.1860

            TOTAL IN =     7632528.5000              TOTAL IN =        7250.7432

          OUT:                                     OUT:
          ----                                     ----
             STORAGE =     3813411.5000               STORAGE =          14.0432
       CONSTANT HEAD =           0.0000         CONSTANT HEAD =           0.0000
          FARM WELLS =     2489452.5000            FARM WELLS =        5189.2300
    FARM  NET  RECH. =           0.0000      FARM  NET  RECH. =           0.0000
     GHOST-NODE HEAD =     1329663.2500       GHOST-NODE HEAD =        2047.4724

           TOTAL OUT =     7632527.0000             TOTAL OUT =        7250.7451

            IN - OUT =           1.5000              IN - OUT =      -1.9531E-03

 PERCENT DISCREPANCY =           0.00     PERCENT DISCREPANCY =          -0.00






          TIME SUMMARY AT END OF TIME STEP     2 IN STRESS PERIOD     22
                    SECONDS     MINUTES      HOURS       DAYS        YEARS
                    -----------------------------------------------------------
   TIME STEP LENGTH 1.31414E+06  21902.      365.04      15.210     4.16427E-02
 STRESS PERIOD TIME 2.62829E+06  43805.      730.08      30.420     8.32854E-02
         TOTAL TIME 5.78223E+07 9.63706E+05  16062.      669.24      1.8323    
1
1
  FLUX ACROSS PARENT-CHILD INTERFACE AT TIME STEP  2 IN STRESS PERIOD   22
  ------------------------------------------------------------------------
 G-N FLUX        PARENT        CHILD         DIFFERENCE      % DIFFERENCE
  RATE IN:      4.8313E+03    4.8312E+03     1.0986E-01        0.0023
 RATE OUT:      2.0478E+03    2.0475E+03     3.0481E-01        0.0149
1
                            STRESS PERIOD NO.     23, LENGTH =   30.42000    
                            -----------------------------------------------

                              NUMBER OF TIME STEPS =     2

                               MULTIPLIER FOR DELT =     1.000

                            INITIAL TIME STEP SIZE =   15.21000    

 Parameter:  WELLS1
 WELL NO. LAYER    ROW    COL  F-WELL ID    FARM ID         QMAX         QMAXRESET       LGRGRID         
 --------------------------------------------------------------------------------------------------------
       1      1      8      2          2          1      5.0000E+03              0              0
       2      1      8      8          3          1      5.0000E+03              0              0

 NUMBER OF ACTIVE FARM WELLS:        2

 FARM-ID  NUMBER OF WELLS PER FARM  TOTAL MAX.CAPACITY PER FARM
       1                         2                   10000.0000
       2                         0                       0.0000
       3                         0                       0.0000
       4                         0                       0.0000
       5                         0                       0.0000
       6                         0                       0.0000
       7                         0                       0.0000
       8                         0                       0.0000

Transpiratory and Evaporative Fractions of Crop Consumptive Use
    % Transpiration % Evap. for Precip. % Evap. for Irrig.
    2          0.000          1.000          0.350
    3          0.954          0.046          0.046

FRACTIONS OF IN-EFFICIENT LOSSES TO SW-RUNOFF FROM 
     PRECIPITATION:  IRRIGATION:
    2          0.400          0.300
    3          0.600          0.500
 
 SOLVING FOR HEAD 
                                                   Max.-Head-Change                        Max.-Flux-Residual
  Residual-Control   Outer-Iter.   Inner-Iter.     Column Row Layer    Max.-Head-Change    Column Row Layer    Max.-Flux-Residual            L2-New               L2-Old           Solver-Max-Delh
          0                 1           9             8    8     1       0.2041011998E+01       2    8    1       0.2587563972E+04      0.3733464576E+04      0.3575984956E-01      0.2041011998E+01
          0                 2           8             8    8     1      -0.1885786131E+00       8    8    1      -0.2987321490E+03      0.4264038288E+03      0.3733464576E+04     -0.1885786131E+00
          0                 3           7             8    8     1      -0.9648997382E-02       8    8    1      -0.1542931083E+02      0.2199259332E+02      0.4264038288E+03     -0.9648997382E-02
          0                 4           5             8    8     1      -0.4860952133E-03       8    8    1      -0.7725874124E+00      0.1101670044E+01      0.2199259332E+02     -0.4860952133E-03
          0                 5           3             8    8     1      -0.2312784728E-04       8    8    1      -0.3863463883E-01      0.5615787175E-01      0.1101670044E+01     -0.2312784728E-04

    ------------------------------------------------
       NWT REQUIRED            5 OUTER ITERATIONS 
       AND A TOTAL OF         32 INNER ITERATIONS.
    ------------------------------------------------
                                                   Max.-Head-Change                        Max.-Flux-Residual
  Residual-Control   Outer-Iter.   Inner-Iter.     Column Row Layer    Max.-Head-Change    Column Row Layer    Max.-Flux-Residual            L2-New               L2-Old           Solver-Max-Delh
          0                 1           9             9    1     1       0.2141604192E+00       1    9    1       0.1376599513E+03      0.4029466603E+03      0.5615787175E-01      0.2141604192E+00
          0                 2           7             9    1     1      -0.1870263298E-01       1    9    1      -0.1373134530E+02      0.4046488913E+02      0.4029466603E+03     -0.1870263298E-01
          0                 3           5             9    1     1      -0.9175706317E-03       1    9    1      -0.6918893909E+00      0.2019999308E+01      0.4046488913E+02     -0.9175706317E-03
          0                 4           3             9    1     1      -0.4673389390E-04       1    1    1      -0.3837585193E-01      0.1013845494E+00      0.2019999308E+01     -0.4673389390E-04

    ------------------------------------------------
       NWT REQUIRED            4 OUTER ITERATIONS 
       AND A TOTAL OF         24 INNER ITERATIONS.
    ------------------------------------------------
                                                   Max.-Head-Change                        Max.-Flux-Residual
  Residual-Control   Outer-Iter.   Inner-Iter.     Column Row Layer    Max.-Head-Change    Column Row Layer    Max.-Flux-Residual            L2-New               L2-Old           Solver-Max-Delh
          0                 1           8             1    9     1       0.1219899155E+00       1    9    1       0.1053768402E+03      0.2282196121E+03      0.1013845494E+00      0.1219899155E+00
          0                 2           7             1    9     1      -0.1047242523E-01       1    9    1      -0.1049194619E+02      0.2275629455E+02      0.2282196121E+03     -0.1047242523E-01
          0                 3           5             1    9     1      -0.5286159372E-03       1    9    1      -0.5319389002E+00      0.1144322189E+01      0.2275629455E+02     -0.5286159372E-03
          0                 4           3             1    9     1      -0.2706130727E-04       1    9    1      -0.2786861552E-01      0.5887370317E-01      0.1144322189E+01     -0.2706130727E-04

    ------------------------------------------------
       NWT REQUIRED            4 OUTER ITERATIONS 
       AND A TOTAL OF         23 INNER ITERATIONS.
    ------------------------------------------------
                                                   Max.-Head-Change                        Max.-Flux-Residual
  Residual-Control   Outer-Iter.   Inner-Iter.     Column Row Layer    Max.-Head-Change    Column Row Layer    Max.-Flux-Residual            L2-New               L2-Old           Solver-Max-Delh
          0                 1           8             1    9     1       0.7150134944E-01       1    9    1       0.6341079537E+02      0.1162398279E+03      0.5887370317E-01      0.7150134944E-01
          0                 2           7             1    9     1      -0.6134839838E-02       1    9    1      -0.6311423796E+01      0.1155293482E+02      0.1162398279E+03     -0.6134839838E-02
          0                 3           4             1    9     1      -0.3135752821E-03       1    9    1      -0.3249183506E+00      0.5889825449E+00      0.1155293482E+02     -0.3135752821E-03
          0                 4           3             2    9     1      -0.1565533740E-04       2    9    1      -0.1347346249E-01      0.3127328029E-01      0.5889825449E+00     -0.1565533740E-04

    ------------------------------------------------
       NWT REQUIRED            4 OUTER ITERATIONS 
       AND A TOTAL OF         22 INNER ITERATIONS.
    ------------------------------------------------
                                                   Max.-Head-Change                        Max.-Flux-Residual
  Residual-Control   Outer-Iter.   Inner-Iter.     Column Row Layer    Max.-Head-Change    Column Row Layer    Max.-Flux-Residual            L2-New               L2-Old           Solver-Max-Delh
          0                 1           8             1    9     1       0.3581913209E-01       1    9    1       0.3268385313E+02      0.5335053324E+02      0.3127328029E-01      0.3581913209E-01
          0                 2           6             1    9     1      -0.3071614416E-02       1    9    1      -0.3250675618E+01      0.5296853270E+01      0.5335053324E+02     -0.3071614416E-02
          0                 3           4             1    9     1      -0.1568942590E-03       1    9    1      -0.1647206491E+00      0.2704104615E+00      0.5296853270E+01     -0.1568942590E-03
          0                 4           2             1    9     1      -0.1045226716E-04       1    9    1      -0.1420145517E-01      0.2093047787E-01      0.2704104615E+00     -0.1045226716E-04

    ------------------------------------------------
       NWT REQUIRED            4 OUTER ITERATIONS 
       AND A TOTAL OF         20 INNER ITERATIONS.
    ------------------------------------------------
                                                   Max.-Head-Change                        Max.-Flux-Residual
  Residual-Control   Outer-Iter.   Inner-Iter.     Column Row Layer    Max.-Head-Change    Column Row Layer    Max.-Flux-Residual            L2-New               L2-Old           Solver-Max-Delh
          0                 1           7             1    9     1       0.1567277180E-01       1    9    1       0.1479692312E+02      0.2340071772E+02      0.2093047787E-01      0.1567277180E-01
          0                 2           5             1    9     1      -0.1345184173E-02       1    9    1      -0.1468409867E+01      0.2326306797E+01      0.2340071772E+02     -0.1345184173E-02
          0                 3           3             1    9     1      -0.6509191703E-04       1    9    1      -0.6863893144E-01      0.1163449101E+00      0.2326306797E+01     -0.6509191703E-04

    ------------------------------------------------
       NWT REQUIRED            3 OUTER ITERATIONS 
       AND A TOTAL OF         15 INNER ITERATIONS.
    ------------------------------------------------
                                                   Max.-Head-Change                        Max.-Flux-Residual
  Residual-Control   Outer-Iter.   Inner-Iter.     Column Row Layer    Max.-Head-Change    Column Row Layer    Max.-Flux-Residual            L2-New               L2-Old           Solver-Max-Delh
          0                 1           6             1    9     1       0.5931494803E-02       1    9    1       0.5852009201E+01      0.1024249054E+02      0.1163449101E+00      0.5931494803E-02
          0                 2           4             1    9     1      -0.5108364212E-03       1    9    1      -0.5861965810E+00      0.1017972548E+01      0.1024249054E+02     -0.5108364212E-03
          0                 3           2             1    9     1      -0.2658310175E-04       1    9    1      -0.3139115509E-01      0.5832383230E-01      0.1017972548E+01     -0.2658310175E-04

    ------------------------------------------------
       NWT REQUIRED            3 OUTER ITERATIONS 
       AND A TOTAL OF         12 INNER ITERATIONS.
    ------------------------------------------------
                                                   Max.-Head-Change                        Max.-Flux-Residual
  Residual-Control   Outer-Iter.   Inner-Iter.     Column Row Layer    Max.-Head-Change    Column Row Layer    Max.-Flux-Residual            L2-New               L2-Old           Solver-Max-Delh
          0                 1           5             9    1     1      -0.2013785327E-02       1    9    1       0.1890015992E+01      0.4315744500E+01      0.5832383230E-01     -0.2013785327E-02
          0                 2           4             9    1     1       0.1719677984E-03       1    9    1      -0.1856405837E+00      0.4267641161E+00      0.4315744500E+01      0.1719677984E-03
          0                 3           2             1    9     1      -0.1255033243E-04       1    9    1      -0.1434859267E-01      0.3086856280E-01      0.4267641161E+00     -0.1255033243E-04

    ------------------------------------------------
       NWT REQUIRED            3 OUTER ITERATIONS 
       AND A TOTAL OF         11 INNER ITERATIONS.
    ------------------------------------------------
                                                   Max.-Head-Change                        Max.-Flux-Residual
  Residual-Control   Outer-Iter.   Inner-Iter.     Column Row Layer    Max.-Head-Change    Column Row Layer    Max.-Flux-Residual            L2-New               L2-Old           Solver-Max-Delh
          0                 1           5             9    1     1      -0.9929540867E-03       1    1    1      -0.6204998294E+00      0.1739318856E+01      0.3086856280E-01     -0.9929540867E-03
          0                 2           4             9    1     1       0.8665078046E-04       9    1    1       0.6120459671E-01      0.1710232899E+00      0.1739318856E+01      0.8665078046E-04

    ------------------------------------------------
       NWT REQUIRED            2 OUTER ITERATIONS 
       AND A TOTAL OF          9 INNER ITERATIONS.
    ------------------------------------------------
                                                   Max.-Head-Change                        Max.-Flux-Residual
  Residual-Control   Outer-Iter.   Inner-Iter.     Column Row Layer    Max.-Head-Change    Column Row Layer    Max.-Flux-Residual            L2-New               L2-Old           Solver-Max-Delh
          0                 1           5             1    2     1      -0.4590352689E-03       1    1    1      -0.3686229321E+00      0.8481167354E+00      0.1710232899E+00     -0.4590352689E-03
          0                 2           3             1    2     1       0.4137529269E-04       1    1    1       0.4116200435E-01      0.8755965686E-01      0.8481167354E+00      0.4137529269E-04

    ------------------------------------------------
       NWT REQUIRED            2 OUTER ITERATIONS 
       AND A TOTAL OF          8 INNER ITERATIONS.
    ------------------------------------------------
                                                   Max.-Head-Change                        Max.-Flux-Residual
  Residual-Control   Outer-Iter.   Inner-Iter.     Column Row Layer    Max.-Head-Change    Column Row Layer    Max.-Flux-Residual            L2-New               L2-Old           Solver-Max-Delh
          0                 1           4             1    5     1      -0.2398708264E-03       1    9    1      -0.1965057724E+00      0.5199946100E+00      0.8755965686E-01     -0.2398708264E-03
          0                 2           3             1    4     1       0.2117092817E-04       1    9    1       0.2160834440E-01      0.5515606423E-01      0.5199946100E+00      0.2117092817E-04

    ------------------------------------------------
       NWT REQUIRED            2 OUTER ITERATIONS 
       AND A TOTAL OF          7 INNER ITERATIONS.
    ------------------------------------------------

 OUTPUT CONTROL FOR STRESS PERIOD     23   TIME STEP     1
    SAVE BUDGET
 UBDSV1 SAVING "         STORAGE" ON UNIT7011 AT TIME STEP    1, STRESS PERIOD  23
 UBDSV2 SAVING "   CONSTANT HEAD" ON UNIT7011 AT TIME STEP    1, STRESS PERIOD  23
 UBDSV1 SAVING "FLOW RIGHT FACE " ON UNIT7011 AT TIME STEP    1, STRESS PERIOD  23
 UBDSV1 SAVING "FLOW FRONT FACE " ON UNIT7011 AT TIME STEP    1, STRESS PERIOD  23
 UBDSV1 SAVING "FLOW LOWER FACE " ON UNIT7011 AT TIME STEP    1, STRESS PERIOD  23
 
 
 
 
 
 
 
 
 UBDSV3 SAVING "FARM  NET  RECH." ON UNIT7011 AT TIME STEP    1, STRESS PERIOD  23
 UBDSV4 SAVING " GHOST-NODE HEAD" ON UNIT7011 AT TIME STEP    1, STRESS PERIOD  23
1
  FLUX ACROSS PARENT-CHILD INTERFACE AT TIME STEP  1 IN STRESS PERIOD   23
  ------------------------------------------------------------------------
 G-N FLUX        PARENT        CHILD         DIFFERENCE      % DIFFERENCE
  RATE IN:      2.6050E+03    2.6048E+03     2.6880E-01        0.0103
 RATE OUT:      1.3846E+03    1.3846E+03     5.9204E-02        0.0043
 
 SOLVING FOR HEAD 
                                                   Max.-Head-Change                        Max.-Flux-Residual
  Residual-Control   Outer-Iter.   Inner-Iter.     Column Row Layer    Max.-Head-Change    Column Row Layer    Max.-Flux-Residual            L2-New               L2-Old           Solver-Max-Delh
          0                 1           9             9    7     1       0.5323034250E+00       1    1    1       0.2269833585E+03      0.7085759821E+03      0.5515606423E-01      0.5323034250E+00
          0                 2           8             9    7     1      -0.4637592663E-01       1    1    1      -0.2269093342E+02      0.7037667421E+02      0.7085759821E+03     -0.4637592663E-01
          0                 3           6             9    7     1      -0.2330731862E-02       1    1    1      -0.1131837217E+01      0.3522646256E+01      0.7037667421E+02     -0.2330731862E-02
          0                 4           4             9    7     1      -0.1162686278E-03       1    9    1      -0.5980930262E-01      0.1776817496E+00      0.3522646256E+01     -0.1162686278E-03
          0                 5           2             9    1     1      -0.8050018156E-05       3    9    1      -0.6652892218E-02      0.1978138676E-01      0.1776817496E+00     -0.8050018156E-05

    ------------------------------------------------
       NWT REQUIRED            5 OUTER ITERATIONS 
       AND A TOTAL OF         29 INNER ITERATIONS.
    ------------------------------------------------
                                                   Max.-Head-Change                        Max.-Flux-Residual
  Residual-Control   Outer-Iter.   Inner-Iter.     Column Row Layer    Max.-Head-Change    Column Row Layer    Max.-Flux-Residual            L2-New               L2-Old           Solver-Max-Delh
          0                 1           8             1    1     1       0.1409656247E+00       1    1    1       0.1174511113E+03      0.2901045924E+03      0.1978138676E-01      0.1409656247E+00
          0                 2           7             1    1     1      -0.1221460711E-01       1    1    1      -0.1179863879E+02      0.2908122483E+02      0.2901045924E+03     -0.1221460711E-01
          0                 3           5             1    1     1      -0.6076482229E-03       1    1    1      -0.5854521778E+00      0.1453312730E+01      0.2908122483E+02     -0.6076482229E-03
          0                 4           3             1    4     1      -0.2837827227E-04       1    1    1      -0.2633972070E-01      0.6605699449E-01      0.1453312730E+01     -0.2837827227E-04

    ------------------------------------------------
       NWT REQUIRED            4 OUTER ITERATIONS 
       AND A TOTAL OF         23 INNER ITERATIONS.
    ------------------------------------------------
                                                   Max.-Head-Change                        Max.-Flux-Residual
  Residual-Control   Outer-Iter.   Inner-Iter.     Column Row Layer    Max.-Head-Change    Column Row Layer    Max.-Flux-Residual            L2-New               L2-Old           Solver-Max-Delh
          0                 1           8             1    1     1       0.7264852179E-01       1    1    1       0.6039878482E+02      0.1499476500E+03      0.6605699449E-01      0.7264852179E-01
          0                 2           7             1    1     1      -0.6290095758E-02       1    1    1      -0.6059213892E+01      0.1501498154E+02      0.1499476500E+03     -0.6290095758E-02
          0                 3           5             1    1     1      -0.3118829642E-03       1    1    1      -0.2980680512E+00      0.7474762634E+00      0.1501498154E+02     -0.3118829642E-03
          0                 4           3             1    1     1      -0.2092253272E-04       1    1    1      -0.2381942095E-01      0.4661160250E-01      0.7474762634E+00     -0.2092253272E-04

    ------------------------------------------------
       NWT REQUIRED            4 OUTER ITERATIONS 
       AND A TOTAL OF         23 INNER ITERATIONS.
    ------------------------------------------------
                                                   Max.-Head-Change                        Max.-Flux-Residual
  Residual-Control   Outer-Iter.   Inner-Iter.     Column Row Layer    Max.-Head-Change    Column Row Layer    Max.-Flux-Residual            L2-New               L2-Old           Solver-Max-Delh
          0                 1           8             1    1     1       0.3299105336E-01       1    1    1       0.2749001211E+02      0.6852050886E+02      0.4661160250E-01      0.3299105336E-01
          0                 2           6             1    1     1      -0.2851239427E-02       1    1    1      -0.2750752447E+01      0.6854731383E+01      0.6852050886E+02     -0.2851239427E-02
          0                 3           4             1    1     1      -0.1418443591E-03       1    1    1      -0.1390430504E+00      0.3352287171E+00      0.6854731383E+01     -0.1418443591E-03
          0                 4           3             1    9     1      -0.1062201804E-04       1    9    1      -0.1292336540E-01      0.2833214478E-01      0.3352287171E+00     -0.1062201804E-04

    ------------------------------------------------
       NWT REQUIRED            4 OUTER ITERATIONS 
       AND A TOTAL OF         21 INNER ITERATIONS.
    ------------------------------------------------
                                                   Max.-Head-Change                        Max.-Flux-Residual
  Residual-Control   Outer-Iter.   Inner-Iter.     Column Row Layer    Max.-Head-Change    Column Row Layer    Max.-Flux-Residual            L2-New               L2-Old           Solver-Max-Delh
          0                 1           7             1    1     1       0.1285231626E-01       1    9    1       0.1120650286E+02      0.2762814019E+02      0.2833214478E-01      0.1285231626E-01
          0                 2           5             1    1     1      -0.1115791854E-02       1    9    1      -0.1115379282E+01      0.2765921375E+01      0.2762814019E+02     -0.1115791854E-02
          0                 3           4             1    9     1      -0.5544066339E-04       1    9    1      -0.5495935591E-01      0.1392394996E+00      0.2765921375E+01     -0.5544066339E-04

    ------------------------------------------------
       NWT REQUIRED            3 OUTER ITERATIONS 
       AND A TOTAL OF         16 INNER ITERATIONS.
    ------------------------------------------------
                                                   Max.-Head-Change                        Max.-Flux-Residual
  Residual-Control   Outer-Iter.   Inner-Iter.     Column Row Layer    Max.-Head-Change    Column Row Layer    Max.-Flux-Residual            L2-New               L2-Old           Solver-Max-Delh
          0                 1           6             1    9     1       0.4721659829E-02       1    9    1       0.4264599836E+01      0.9376923661E+01      0.1392394996E+00      0.4721659829E-02
          0                 2           5             1    9     1      -0.4066945652E-03       1    9    1      -0.4307114778E+00      0.9378689836E+00      0.9376923661E+01     -0.4066945652E-03
          0                 3           3             1    9     1      -0.2280159659E-04       1    9    1      -0.2322498680E-01      0.5045002601E-01      0.9378689836E+00     -0.2280159659E-04

    ------------------------------------------------
       NWT REQUIRED            3 OUTER ITERATIONS 
       AND A TOTAL OF         14 INNER ITERATIONS.
    ------------------------------------------------
                                                   Max.-Head-Change                        Max.-Flux-Residual
  Residual-Control   Outer-Iter.   Inner-Iter.     Column Row Layer    Max.-Head-Change    Column Row Layer    Max.-Flux-Residual            L2-New               L2-Old           Solver-Max-Delh
          0                 1           5             2    9     1       0.1464691293E-02       1    9    1       0.1312607282E+01      0.2543336675E+01      0.5045002601E-01      0.1464691293E-02
          0                 2           4             2    9     1      -0.1246301790E-03       1    9    1      -0.1240216220E+00      0.2495086057E+00      0.2543336675E+01     -0.1246301790E-03
          0                 3           2             1    9     1      -0.7263764909E-05       1    9    1      -0.1295163814E-01      0.1614809262E-01      0.2495086057E+00     -0.7263764909E-05

    ------------------------------------------------
       NWT REQUIRED            3 OUTER ITERATIONS 
       AND A TOTAL OF         11 INNER ITERATIONS.
    ------------------------------------------------
                                                   Max.-Head-Change                        Max.-Flux-Residual
  Residual-Control   Outer-Iter.   Inner-Iter.     Column Row Layer    Max.-Head-Change    Column Row Layer    Max.-Flux-Residual            L2-New               L2-Old           Solver-Max-Delh
          0                 1           5             1    4     1      -0.5317317064E-03       1    1    1      -0.4089587253E+00      0.1288790171E+01      0.1614809262E-01     -0.5317317064E-03
          0                 2           4             1    4     1       0.4817631344E-04       1    1    1       0.3879543266E-01      0.1284815586E+00      0.1288790171E+01      0.4817631344E-04

    ------------------------------------------------
       NWT REQUIRED            2 OUTER ITERATIONS 
       AND A TOTAL OF          9 INNER ITERATIONS.
    ------------------------------------------------
                                                   Max.-Head-Change                        Max.-Flux-Residual
  Residual-Control   Outer-Iter.   Inner-Iter.     Column Row Layer    Max.-Head-Change    Column Row Layer    Max.-Flux-Residual            L2-New               L2-Old           Solver-Max-Delh
          0                 1           5             1    1     1      -0.5612363942E-03       1    1    1      -0.4605932189E+00      0.1095020247E+01      0.1284815586E+00     -0.5612363942E-03
          0                 2           4             1    1     1       0.5101279732E-04       1    1    1       0.5437880161E-01      0.1141634848E+00      0.1095020247E+01      0.5101279732E-04

    ------------------------------------------------
       NWT REQUIRED            2 OUTER ITERATIONS 
       AND A TOTAL OF          9 INNER ITERATIONS.
    ------------------------------------------------
                                                   Max.-Head-Change                        Max.-Flux-Residual
  Residual-Control   Outer-Iter.   Inner-Iter.     Column Row Layer    Max.-Head-Change    Column Row Layer    Max.-Flux-Residual            L2-New               L2-Old           Solver-Max-Delh
          0                 1           5             1    1     1      -0.3955544350E-03       1    1    1      -0.3320342201E+00      0.7441830569E+00      0.1141634848E+00     -0.3955544350E-03
          0                 2           3             3    1     1       0.3355035267E-04       1    1    1       0.2945130540E-01      0.7625876979E-01      0.7441830569E+00      0.3355035267E-04

    ------------------------------------------------
       NWT REQUIRED            2 OUTER ITERATIONS 
       AND A TOTAL OF          8 INNER ITERATIONS.
    ------------------------------------------------

 OUTPUT CONTROL FOR STRESS PERIOD     23   TIME STEP     2
    SAVE BUDGET
 UBDSV1 SAVING "         STORAGE" ON UNIT7011 AT TIME STEP    2, STRESS PERIOD  23
 UBDSV2 SAVING "   CONSTANT HEAD" ON UNIT7011 AT TIME STEP    2, STRESS PERIOD  23
 UBDSV1 SAVING "FLOW RIGHT FACE " ON UNIT7011 AT TIME STEP    2, STRESS PERIOD  23
 UBDSV1 SAVING "FLOW FRONT FACE " ON UNIT7011 AT TIME STEP    2, STRESS PERIOD  23
 UBDSV1 SAVING "FLOW LOWER FACE " ON UNIT7011 AT TIME STEP    2, STRESS PERIOD  23
 
 
 
 
 
 
 
 
 UBDSV3 SAVING "FARM  NET  RECH." ON UNIT7011 AT TIME STEP    2, STRESS PERIOD  23
 UBDSV4 SAVING " GHOST-NODE HEAD" ON UNIT7011 AT TIME STEP    2, STRESS PERIOD  23
1
  VOLUMETRIC BUDGET FOR ENTIRE MODEL AT END OF TIME STEP    2 IN STRESS PERIOD     23
  ------------------------------------------------------------------------------

     CUMULATIVE VOLUMES      L**3       RATES FOR THIS TIME STEP      L**3/T
     ------------------                 ------------------------

           IN:                                      IN:
           ---                                      ---
             STORAGE =      310021.1562               STORAGE =           0.0000
       CONSTANT HEAD =           0.0000         CONSTANT HEAD =           0.0000
          FARM WELLS =           0.0000            FARM WELLS =           0.0000
    FARM  NET  RECH. =     1633941.7500      FARM  NET  RECH. =        1333.0385
     GHOST-NODE HEAD =     5800195.5000       GHOST-NODE HEAD =        2068.4177

            TOTAL IN =     7744158.5000              TOTAL IN =        3401.4561

          OUT:                                     OUT:
          ----                                     ----
             STORAGE =     3878555.7500               STORAGE =        1766.7449
       CONSTANT HEAD =           0.0000         CONSTANT HEAD =           0.0000
          FARM WELLS =     2490578.0000            FARM WELLS =          37.0059
    FARM  NET  RECH. =           0.0000      FARM  NET  RECH. =           0.0000
     GHOST-NODE HEAD =     1375022.8750       GHOST-NODE HEAD =        1597.6647

           TOTAL OUT =     7744157.0000             TOTAL OUT =        3401.4155

            IN - OUT =           1.5000              IN - OUT =       4.0527E-02

 PERCENT DISCREPANCY =           0.00     PERCENT DISCREPANCY =           0.00






          TIME SUMMARY AT END OF TIME STEP     2 IN STRESS PERIOD     23
                    SECONDS     MINUTES      HOURS       DAYS        YEARS
                    -----------------------------------------------------------
   TIME STEP LENGTH 1.31414E+06  21902.      365.04      15.210     4.16427E-02
 STRESS PERIOD TIME 2.62829E+06  43805.      730.08      30.420     8.32854E-02
         TOTAL TIME 6.04506E+07 1.00751E+06  16792.      699.66      1.9156    
1
1
  FLUX ACROSS PARENT-CHILD INTERFACE AT TIME STEP  2 IN STRESS PERIOD   23
  ------------------------------------------------------------------------
 G-N FLUX        PARENT        CHILD         DIFFERENCE      % DIFFERENCE
  RATE IN:      2.0679E+03    2.0684E+03    -5.1147E-01       -0.0247
 RATE OUT:      1.5980E+03    1.5977E+03     3.5095E-01        0.0220
1
                            STRESS PERIOD NO.     24, LENGTH =   30.42000    
                            -----------------------------------------------

                              NUMBER OF TIME STEPS =     2

                               MULTIPLIER FOR DELT =     1.000

                            INITIAL TIME STEP SIZE =   15.21000    

 Parameter:  WELLS1
 WELL NO. LAYER    ROW    COL  F-WELL ID    FARM ID         QMAX         QMAXRESET       LGRGRID         
 --------------------------------------------------------------------------------------------------------
       1      1      8      2          2          1      5.0000E+03              0              0
       2      1      8      8          3          1      5.0000E+03              0              0

 NUMBER OF ACTIVE FARM WELLS:        2

 FARM-ID  NUMBER OF WELLS PER FARM  TOTAL MAX.CAPACITY PER FARM
       1                         2                   10000.0000
       2                         0                       0.0000
       3                         0                       0.0000
       4                         0                       0.0000
       5                         0                       0.0000
       6                         0                       0.0000
       7                         0                       0.0000
       8                         0                       0.0000

Transpiratory and Evaporative Fractions of Crop Consumptive Use
    % Transpiration % Evap. for Precip. % Evap. for Irrig.
    2          0.000          1.000          0.350
    3          0.957          0.043          0.043

FRACTIONS OF IN-EFFICIENT LOSSES TO SW-RUNOFF FROM 
     PRECIPITATION:  IRRIGATION:
    2          0.400          0.300
    3          0.600          0.500
 
 SOLVING FOR HEAD 
                                                   Max.-Head-Change                        Max.-Flux-Residual
  Residual-Control   Outer-Iter.   Inner-Iter.     Column Row Layer    Max.-Head-Change    Column Row Layer    Max.-Flux-Residual            L2-New               L2-Old           Solver-Max-Delh
          0                 1           9             9    5     1       0.5537897131E+00       1    1    1       0.2984717328E+03      0.8680858298E+03      0.7625876979E-01      0.5537897131E+00
          0                 2           8             9    5     1      -0.4833599530E-01       1    1    1      -0.2985590079E+02      0.8638124582E+02      0.8680858298E+03     -0.4833599530E-01
          0                 3           6             9    5     1      -0.2414308196E-02       1    1    1      -0.1477129748E+01      0.4308565391E+01      0.8638124582E+02     -0.2414308196E-02
          0                 4           4             6    5     1      -0.1195003786E-03       1    9    1      -0.7161706383E-01      0.2125790212E+00      0.4308565391E+01     -0.1195003786E-03
          0                 5           3             1    8     1      -0.9708512887E-05       1    1    1      -0.1201142475E-01      0.2475160981E-01      0.2125790212E+00     -0.9708512887E-05

    ------------------------------------------------
       NWT REQUIRED            5 OUTER ITERATIONS 
       AND A TOTAL OF         30 INNER ITERATIONS.
    ------------------------------------------------
                                                   Max.-Head-Change                        Max.-Flux-Residual
  Residual-Control   Outer-Iter.   Inner-Iter.     Column Row Layer    Max.-Head-Change    Column Row Layer    Max.-Flux-Residual            L2-New               L2-Old           Solver-Max-Delh
          0                 1           9             1    1     1       0.1836826189E+00       1    1    1       0.1531708664E+03      0.4207737460E+03      0.2475160981E-01      0.1836826189E+00
          0                 2           7             1    1     1      -0.1591421994E-01       1    1    1      -0.1538646105E+02      0.4218347078E+02      0.4207737460E+03     -0.1591421994E-01
          0                 3           5             1    1     1      -0.7936929356E-03       1    1    1      -0.7665702865E+00      0.2116209773E+01      0.4218347078E+02     -0.7936929356E-03
          0                 4           4             1    1     1      -0.4187817176E-04       1    1    1      -0.4211860313E-01      0.1069181155E+00      0.2116209773E+01     -0.4187817176E-04

    ------------------------------------------------
       NWT REQUIRED            4 OUTER ITERATIONS 
       AND A TOTAL OF         25 INNER ITERATIONS.
    ------------------------------------------------
                                                   Max.-Head-Change                        Max.-Flux-Residual
  Residual-Control   Outer-Iter.   Inner-Iter.     Column Row Layer    Max.-Head-Change    Column Row Layer    Max.-Flux-Residual            L2-New               L2-Old           Solver-Max-Delh
          0                 1           8             1    1     1       0.9412529536E-01       1    1    1       0.7824895409E+02      0.2158961442E+03      0.1069181155E+00      0.9412529536E-01
          0                 2           7             1    1     1      -0.8151302980E-02       1    1    1      -0.7850451840E+01      0.2160782097E+02      0.2158961442E+03     -0.8151302980E-02
          0                 3           5             1    1     1      -0.4014837919E-03       1    1    1      -0.3840565513E+00      0.1078029939E+01      0.2160782097E+02     -0.4014837919E-03
          0                 4           3             1    1     1      -0.2263975967E-04       1    9    1      -0.2182564000E-01      0.5926380422E-01      0.1078029939E+01     -0.2263975967E-04

    ------------------------------------------------
       NWT REQUIRED            4 OUTER ITERATIONS 
       AND A TOTAL OF         23 INNER ITERATIONS.
    ------------------------------------------------
                                                   Max.-Head-Change                        Max.-Flux-Residual
  Residual-Control   Outer-Iter.   Inner-Iter.     Column Row Layer    Max.-Head-Change    Column Row Layer    Max.-Flux-Residual            L2-New               L2-Old           Solver-Max-Delh
          0                 1           8             1    1     1       0.4295128317E-01       1    1    1       0.3580778715E+02      0.9453348807E+02      0.5926380422E-01      0.4295128317E-01
          0                 2           6             1    1     1      -0.3719800181E-02       1    1    1      -0.3589961823E+01      0.9457595805E+01      0.9453348807E+02     -0.3719800181E-02
          0                 3           4             1    1     1      -0.1842125535E-03       1    1    1      -0.1786978819E+00      0.4722319075E+00      0.9457595805E+01     -0.1842125535E-03
          0                 4           3             1    2     1      -0.1108467523E-04       1    1    1      -0.9572790004E-02      0.2944982071E-01      0.4722319075E+00     -0.1108467523E-04

    ------------------------------------------------
       NWT REQUIRED            4 OUTER ITERATIONS 
       AND A TOTAL OF         21 INNER ITERATIONS.
    ------------------------------------------------
                                                   Max.-Head-Change                        Max.-Flux-Residual
  Residual-Control   Outer-Iter.   Inner-Iter.     Column Row Layer    Max.-Head-Change    Column Row Layer    Max.-Flux-Residual            L2-New               L2-Old           Solver-Max-Delh
          0                 1           7             1    1     1       0.1696115532E-01       1    1    1       0.1427653041E+02      0.3539351367E+02      0.2944982071E-01      0.1696115532E-01
          0                 2           6             1    1     1      -0.1470086764E-02       1    1    1      -0.1437540117E+01      0.3546633472E+01      0.3539351367E+02     -0.1470086764E-02
          0                 3           4             1    1     2      -0.7033507011E-04       1    9    1      -0.6938034936E-01      0.1765776429E+00      0.3546633472E+01     -0.7033507011E-04

    ------------------------------------------------
       NWT REQUIRED            3 OUTER ITERATIONS 
       AND A TOTAL OF         17 INNER ITERATIONS.
    ------------------------------------------------
                                                   Max.-Head-Change                        Max.-Flux-Residual
  Residual-Control   Outer-Iter.   Inner-Iter.     Column Row Layer    Max.-Head-Change    Column Row Layer    Max.-Flux-Residual            L2-New               L2-Old           Solver-Max-Delh
          0                 1           6             1    1     2       0.5314572142E-02       1    1    1       0.4505931519E+01      0.1123673622E+02      0.1765776429E+00      0.5314572142E-02
          0                 2           5             1    1     2      -0.4581596925E-03       1    1    1      -0.4461284151E+00      0.1118194668E+01      0.1123673622E+02     -0.4581596925E-03
          0                 3           3             1    1     1      -0.2405314742E-04       1    1    1      -0.2700415999E-01      0.6283111357E-01      0.1118194668E+01     -0.2405314742E-04

    ------------------------------------------------
       NWT REQUIRED            3 OUTER ITERATIONS 
       AND A TOTAL OF         14 INNER ITERATIONS.
    ------------------------------------------------
                                                   Max.-Head-Change                        Max.-Flux-Residual
  Residual-Control   Outer-Iter.   Inner-Iter.     Column Row Layer    Max.-Head-Change    Column Row Layer    Max.-Flux-Residual            L2-New               L2-Old           Solver-Max-Delh
          0                 1           5             9    9     1      -0.2749510468E-02       8    9    1      -0.1793288735E+01      0.3528571019E+01      0.6283111357E-01     -0.2749510468E-02
          0                 2           4             9    9     1       0.2333641758E-03       9    9    1       0.1778798062E+00      0.3474466008E+00      0.3528571019E+01      0.2333641758E-03
          0                 3           2             9    9     1       0.1258745986E-04       9    9    1       0.9441711620E-02      0.1860734305E-01      0.3474466008E+00      0.1258745986E-04

    ------------------------------------------------
       NWT REQUIRED            3 OUTER ITERATIONS 
       AND A TOTAL OF         11 INNER ITERATIONS.
    ------------------------------------------------
                                                   Max.-Head-Change                        Max.-Flux-Residual
  Residual-Control   Outer-Iter.   Inner-Iter.     Column Row Layer    Max.-Head-Change    Column Row Layer    Max.-Flux-Residual            L2-New               L2-Old           Solver-Max-Delh
          0                 1           5             9    9     1      -0.1427104278E-02       7    9    1      -0.8273362556E+00      0.2221577346E+01      0.1860734305E-01     -0.1427104278E-02
          0                 2           4             9    9     1       0.1230446494E-03       8    9    1       0.8445724216E-01      0.2277846768E+00      0.2221577346E+01      0.1230446494E-03
          0                 3           2             9    9     1       0.9910917276E-05       7    9    1       0.8487526618E-02      0.2152252540E-01      0.2277846768E+00      0.9910917276E-05

    ------------------------------------------------
       NWT REQUIRED            3 OUTER ITERATIONS 
       AND A TOTAL OF         11 INNER ITERATIONS.
    ------------------------------------------------
                                                   Max.-Head-Change                        Max.-Flux-Residual
  Residual-Control   Outer-Iter.   Inner-Iter.     Column Row Layer    Max.-Head-Change    Column Row Layer    Max.-Flux-Residual            L2-New               L2-Old           Solver-Max-Delh
          0                 1           5             1    1     1      -0.8244529782E-03       1    1    1      -0.6831146810E+00      0.1773201290E+01      0.2152252540E-01     -0.8244529782E-03
          0                 2           4             4    1     1       0.7208189993E-04       1    1    1       0.6660356908E-01      0.1793940541E+00      0.1773201290E+01      0.7208189993E-04

    ------------------------------------------------
       NWT REQUIRED            2 OUTER ITERATIONS 
       AND A TOTAL OF          9 INNER ITERATIONS.
    ------------------------------------------------
                                                   Max.-Head-Change                        Max.-Flux-Residual
  Residual-Control   Outer-Iter.   Inner-Iter.     Column Row Layer    Max.-Head-Change    Column Row Layer    Max.-Flux-Residual            L2-New               L2-Old           Solver-Max-Delh
          0                 1           5             1    1     1      -0.5723982643E-03       1    1    1      -0.4661972868E+00      0.1202893153E+01      0.1793940541E+00     -0.5723982643E-03
          0                 2           4             1    1     1       0.4971747875E-04       1    1    1       0.4811047332E-01      0.1212810569E+00      0.1202893153E+01      0.4971747875E-04

    ------------------------------------------------
       NWT REQUIRED            2 OUTER ITERATIONS 
       AND A TOTAL OF          9 INNER ITERATIONS.
    ------------------------------------------------
                                                   Max.-Head-Change                        Max.-Flux-Residual
  Residual-Control   Outer-Iter.   Inner-Iter.     Column Row Layer    Max.-Head-Change    Column Row Layer    Max.-Flux-Residual            L2-New               L2-Old           Solver-Max-Delh
          0                 1           5             1    1     1      -0.3383720451E-03       1    1    1      -0.2785562079E+00      0.6931819804E+00      0.1212810569E+00     -0.3383720451E-03
          0                 2           3             1    1     1       0.3213439725E-04       1    1    1       0.2997550520E-01      0.7653932235E-01      0.6931819804E+00      0.3213439725E-04

    ------------------------------------------------
       NWT REQUIRED            2 OUTER ITERATIONS 
       AND A TOTAL OF          8 INNER ITERATIONS.
    ------------------------------------------------

 OUTPUT CONTROL FOR STRESS PERIOD     24   TIME STEP     1
    SAVE BUDGET
 UBDSV1 SAVING "         STORAGE" ON UNIT7011 AT TIME STEP    1, STRESS PERIOD  24
 UBDSV2 SAVING "   CONSTANT HEAD" ON UNIT7011 AT TIME STEP    1, STRESS PERIOD  24
 UBDSV1 SAVING "FLOW RIGHT FACE " ON UNIT7011 AT TIME STEP    1, STRESS PERIOD  24
 UBDSV1 SAVING "FLOW FRONT FACE " ON UNIT7011 AT TIME STEP    1, STRESS PERIOD  24
 UBDSV1 SAVING "FLOW LOWER FACE " ON UNIT7011 AT TIME STEP    1, STRESS PERIOD  24
 
 
 
 
 
 
 
 
 UBDSV3 SAVING "FARM  NET  RECH." ON UNIT7011 AT TIME STEP    1, STRESS PERIOD  24
 UBDSV4 SAVING " GHOST-NODE HEAD" ON UNIT7011 AT TIME STEP    1, STRESS PERIOD  24
1
  FLUX ACROSS PARENT-CHILD INTERFACE AT TIME STEP  1 IN STRESS PERIOD   24
  ------------------------------------------------------------------------
 G-N FLUX        PARENT        CHILD         DIFFERENCE      % DIFFERENCE
  RATE IN:      1.9188E+03    1.9190E+03    -1.3379E-01       -0.0070
 RATE OUT:      1.8459E+03    1.8459E+03    -2.2095E-02       -0.0012
 
 SOLVING FOR HEAD 
                                                   Max.-Head-Change                        Max.-Flux-Residual
  Residual-Control   Outer-Iter.   Inner-Iter.     Column Row Layer    Max.-Head-Change    Column Row Layer    Max.-Flux-Residual            L2-New               L2-Old           Solver-Max-Delh
          0                 1           9             9    5     1       0.4562531183E+00       1    1    1       0.2431187348E+03      0.7047399408E+03      0.7653932235E-01      0.4562531183E+00
          0                 2           8             9    5     1      -0.3980390624E-01       1    1    1      -0.2431722222E+02      0.7027573150E+02      0.7047399408E+03     -0.3980390624E-01
          0                 3           6             9    5     1      -0.1983374397E-02       1    1    1      -0.1204822814E+01      0.3496788693E+01      0.7027573150E+02     -0.1983374397E-02
          0                 4           4             7    5     1      -0.9996401533E-04       1    1    1      -0.6023503060E-01      0.1790749562E+00      0.3496788693E+01     -0.9996401533E-04

    ------------------------------------------------
       NWT REQUIRED            4 OUTER ITERATIONS 
       AND A TOTAL OF         27 INNER ITERATIONS.
    ------------------------------------------------
                                                   Max.-Head-Change                        Max.-Flux-Residual
  Residual-Control   Outer-Iter.   Inner-Iter.     Column Row Layer    Max.-Head-Change    Column Row Layer    Max.-Flux-Residual            L2-New               L2-Old           Solver-Max-Delh
          0                 1           8             1    1     1       0.1494270695E+00       1    1    1       0.1248471503E+03      0.3339810444E+03      0.1790749562E+00      0.1494270695E+00
          0                 2           7             1    1     1      -0.1295313120E-01       1    1    1      -0.1254256702E+02      0.3350622684E+02      0.3339810444E+03     -0.1295313120E-01
          0                 3           5             1    1     1      -0.6401324684E-03       1    1    1      -0.6214993660E+00      0.1670983888E+01      0.3350622684E+02     -0.6401324684E-03
          0                 4           3             1    1     1      -0.3373944724E-04       1    1    1      -0.3323462431E-01      0.8134038888E-01      0.1670983888E+01     -0.3373944724E-04

    ------------------------------------------------
       NWT REQUIRED            4 OUTER ITERATIONS 
       AND A TOTAL OF         23 INNER ITERATIONS.
    ------------------------------------------------
                                                   Max.-Head-Change                        Max.-Flux-Residual
  Residual-Control   Outer-Iter.   Inner-Iter.     Column Row Layer    Max.-Head-Change    Column Row Layer    Max.-Flux-Residual            L2-New               L2-Old           Solver-Max-Delh
          0                 1           8             1    1     1       0.7642464052E-01       1    1    1       0.6376662824E+02      0.1720963767E+03      0.8134038888E-01      0.7642464052E-01
          0                 2           7             1    1     1      -0.6622838213E-02       1    1    1      -0.6402499361E+01      0.1724306416E+02      0.1720963767E+03     -0.6622838213E-02
          0                 3           5             1    1     1      -0.3300337366E-03       1    1    1      -0.3189720516E+00      0.8613347614E+00      0.1724306416E+02     -0.3300337366E-03
          0                 4           3             9    1     1      -0.1805442500E-04       1    9    1      -0.1376189111E-01      0.4426716902E-01      0.8613347614E+00     -0.1805442500E-04

    ------------------------------------------------
       NWT REQUIRED            4 OUTER ITERATIONS 
       AND A TOTAL OF         23 INNER ITERATIONS.
    ------------------------------------------------
                                                   Max.-Head-Change                        Max.-Flux-Residual
  Residual-Control   Outer-Iter.   Inner-Iter.     Column Row Layer    Max.-Head-Change    Column Row Layer    Max.-Flux-Residual            L2-New               L2-Old           Solver-Max-Delh
          0                 1           8             1    1     1       0.3465246567E-01       1    1    1       0.2902800917E+02      0.7628961149E+02      0.4426716902E-01      0.3465246567E-01
          0                 2           6             1    1     1      -0.3000284543E-02       1    1    1      -0.2908625299E+01      0.7635879590E+01      0.7628961149E+02     -0.3000284543E-02
          0                 3           4             1    1     1      -0.1487928334E-03       1    1    1      -0.1454110440E+00      0.3823604548E+00      0.7635879590E+01     -0.1487928334E-03
          0                 4           2             2    1     1      -0.8906234950E-05       1    9    1      -0.1019299333E-01      0.2428809901E-01      0.3823604548E+00     -0.8906234950E-05

    ------------------------------------------------
       NWT REQUIRED            4 OUTER ITERATIONS 
       AND A TOTAL OF         20 INNER ITERATIONS.
    ------------------------------------------------
                                                   Max.-Head-Change                        Max.-Flux-Residual
  Residual-Control   Outer-Iter.   Inner-Iter.     Column Row Layer    Max.-Head-Change    Column Row Layer    Max.-Flux-Residual            L2-New               L2-Old           Solver-Max-Delh
          0                 1           7             1    1     1       0.1356226147E-01       1    1    1       0.1149603092E+02      0.2868619561E+02      0.2428809901E-01      0.1356226147E-01
          0                 2           6             1    1     1      -0.1172864618E-02       1    1    1      -0.1147628284E+01      0.2868500830E+01      0.2868619561E+02     -0.1172864618E-02
          0                 3           4             1    1     2      -0.5797162469E-04       1    9    1      -0.5892209674E-01      0.1435562422E+00      0.2868500830E+01     -0.5797162469E-04

    ------------------------------------------------
       NWT REQUIRED            3 OUTER ITERATIONS 
       AND A TOTAL OF         17 INNER ITERATIONS.
    ------------------------------------------------
                                                   Max.-Head-Change                        Max.-Flux-Residual
  Residual-Control   Outer-Iter.   Inner-Iter.     Column Row Layer    Max.-Head-Change    Column Row Layer    Max.-Flux-Residual            L2-New               L2-Old           Solver-Max-Delh
          0                 1           6             1    1     2       0.4233822834E-02       1    1    1       0.3581138917E+01      0.8706173148E+01      0.1435562422E+00      0.4233822834E-02
          0                 2           5             1    1     2      -0.3652721346E-03       1    1    1      -0.3635847957E+00      0.8705496667E+00      0.8706173148E+01     -0.3652721346E-03
          0                 3           3             1    1     2      -0.1833186829E-04       1    9    1      -0.1714372693E-01      0.4566859415E-01      0.8705496667E+00     -0.1833186829E-04

    ------------------------------------------------
       NWT REQUIRED            3 OUTER ITERATIONS 
       AND A TOTAL OF         14 INNER ITERATIONS.
    ------------------------------------------------
                                                   Max.-Head-Change                        Max.-Flux-Residual
  Residual-Control   Outer-Iter.   Inner-Iter.     Column Row Layer    Max.-Head-Change    Column Row Layer    Max.-Flux-Residual            L2-New               L2-Old           Solver-Max-Delh
          0                 1           5             9    9     1      -0.1849641435E-02       8    9    1      -0.1238158602E+01      0.2435043092E+01      0.4566859415E-01     -0.1849641435E-02
          0                 2           4             9    9     1       0.1595068842E-03       8    9    1       0.1241831856E+00      0.2458574740E+00      0.2435043092E+01      0.1595068842E-03
          0                 3           1             9    9     1       0.6978784788E-05       9    9    1       0.8345689494E-02      0.1416701510E-01      0.2458574740E+00      0.6978784788E-05

    ------------------------------------------------
       NWT REQUIRED            3 OUTER ITERATIONS 
       AND A TOTAL OF         10 INNER ITERATIONS.
    ------------------------------------------------
                                                   Max.-Head-Change                        Max.-Flux-Residual
  Residual-Control   Outer-Iter.   Inner-Iter.     Column Row Layer    Max.-Head-Change    Column Row Layer    Max.-Flux-Residual            L2-New               L2-Old           Solver-Max-Delh
          0                 1           5             9    9     1      -0.1113628589E-02       9    9    1      -0.6458244499E+00      0.1818577212E+01      0.1416701510E-01     -0.1113628589E-02
          0                 2           4             9    9     1       0.9935330221E-04       9    9    1       0.6835621985E-01      0.1881538135E+00      0.1818577212E+01      0.9935330221E-04

    ------------------------------------------------
       NWT REQUIRED            2 OUTER ITERATIONS 
       AND A TOTAL OF          9 INNER ITERATIONS.
    ------------------------------------------------
                                                   Max.-Head-Change                        Max.-Flux-Residual
  Residual-Control   Outer-Iter.   Inner-Iter.     Column Row Layer    Max.-Head-Change    Column Row Layer    Max.-Flux-Residual            L2-New               L2-Old           Solver-Max-Delh
          0                 1           5             5    1     2      -0.6950450782E-03       1    1    1      -0.5105917213E+00      0.1475738901E+01      0.1881538135E+00     -0.6950450782E-03
          0                 2           4             5    1     1       0.5902595399E-04       1    1    1       0.4485877021E-01      0.1402528120E+00      0.1475738901E+01      0.5902595399E-04

    ------------------------------------------------
       NWT REQUIRED            2 OUTER ITERATIONS 
       AND A TOTAL OF          9 INNER ITERATIONS.
    ------------------------------------------------
                                                   Max.-Head-Change                        Max.-Flux-Residual
  Residual-Control   Outer-Iter.   Inner-Iter.     Column Row Layer    Max.-Head-Change    Column Row Layer    Max.-Flux-Residual            L2-New               L2-Old           Solver-Max-Delh
          0                 1           5             1    1     1      -0.4565716065E-03       1    1    1      -0.3760506909E+00      0.9618572341E+00      0.1402528120E+00     -0.4565716065E-03
          0                 2           4             1    1     1       0.3957241567E-04       1    1    1       0.4045888188E-01      0.9843509492E-01      0.9618572341E+00      0.3957241567E-04

    ------------------------------------------------
       NWT REQUIRED            2 OUTER ITERATIONS 
       AND A TOTAL OF          9 INNER ITERATIONS.
    ------------------------------------------------
                                                   Max.-Head-Change                        Max.-Flux-Residual
  Residual-Control   Outer-Iter.   Inner-Iter.     Column Row Layer    Max.-Head-Change    Column Row Layer    Max.-Flux-Residual            L2-New               L2-Old           Solver-Max-Delh
          0                 1           5             1    1     1      -0.2713148265E-03       1    1    1      -0.2300311385E+00      0.5579601808E+00      0.9843509492E-01     -0.2713148265E-03
          0                 2           3             1    2     1       0.2338502913E-04       1    9    1       0.2277069283E-01      0.5860490053E-01      0.5579601808E+00      0.2338502913E-04

    ------------------------------------------------
       NWT REQUIRED            2 OUTER ITERATIONS 
       AND A TOTAL OF          8 INNER ITERATIONS.
    ------------------------------------------------

 OUTPUT CONTROL FOR STRESS PERIOD     24   TIME STEP     2
    PRINT BUDGET
    SAVE HEAD FOR ALL LAYERS
    SAVE BUDGET
 UBDSV1 SAVING "         STORAGE" ON UNIT7011 AT TIME STEP    2, STRESS PERIOD  24
 UBDSV2 SAVING "   CONSTANT HEAD" ON UNIT7011 AT TIME STEP    2, STRESS PERIOD  24
 UBDSV1 SAVING "FLOW RIGHT FACE " ON UNIT7011 AT TIME STEP    2, STRESS PERIOD  24
 UBDSV1 SAVING "FLOW FRONT FACE " ON UNIT7011 AT TIME STEP    2, STRESS PERIOD  24
 UBDSV1 SAVING "FLOW LOWER FACE " ON UNIT7011 AT TIME STEP    2, STRESS PERIOD  24
 
 
 
 
 
 
 
 
 UBDSV3 SAVING "FARM  NET  RECH." ON UNIT7011 AT TIME STEP    2, STRESS PERIOD  24
 UBDSV4 SAVING " GHOST-NODE HEAD" ON UNIT7011 AT TIME STEP    2, STRESS PERIOD  24

 HEAD WILL BE SAVED ON UNIT 2211 AT END OF TIME STEP     2, STRESS PERIOD     24
1
  VOLUMETRIC BUDGET FOR ENTIRE MODEL AT END OF TIME STEP    2 IN STRESS PERIOD     24
  ------------------------------------------------------------------------------

     CUMULATIVE VOLUMES      L**3       RATES FOR THIS TIME STEP      L**3/T
     ------------------                 ------------------------

           IN:                                      IN:
           ---                                      ---
             STORAGE =      310021.1562               STORAGE =           0.0000
       CONSTANT HEAD =           0.0000         CONSTANT HEAD =           0.0000
          FARM WELLS =           0.0000            FARM WELLS =           0.0000
    FARM  NET  RECH. =     1699234.2500      FARM  NET  RECH. =        2146.3672
     GHOST-NODE HEAD =     5855204.0000       GHOST-NODE HEAD =        1697.6400

            TOTAL IN =     7864459.5000              TOTAL IN =        3844.0073

          OUT:                                     OUT:
          ----                                     ----
             STORAGE =     3939866.2500               STORAGE =        1811.5391
       CONSTANT HEAD =           0.0000         CONSTANT HEAD =           0.0000
          FARM WELLS =     2490578.0000            FARM WELLS =           0.0000
    FARM  NET  RECH. =           0.0000      FARM  NET  RECH. =           0.0000
     GHOST-NODE HEAD =     1434013.1250       GHOST-NODE HEAD =        2032.4622

           TOTAL OUT =     7864457.0000             TOTAL OUT =        3844.0012

            IN - OUT =           2.5000              IN - OUT =       6.1035E-03

 PERCENT DISCREPANCY =           0.00     PERCENT DISCREPANCY =           0.00






          TIME SUMMARY AT END OF TIME STEP     2 IN STRESS PERIOD     24
                    SECONDS     MINUTES      HOURS       DAYS        YEARS
                    -----------------------------------------------------------
   TIME STEP LENGTH 1.31414E+06  21902.      365.04      15.210     4.16427E-02
 STRESS PERIOD TIME 2.62829E+06  43805.      730.08      30.420     8.32854E-02
         TOTAL TIME 6.30789E+07 1.05132E+06  17522.      730.08      1.9989    
1
1
  FLUX ACROSS PARENT-CHILD INTERFACE AT TIME STEP  2 IN STRESS PERIOD   24
  ------------------------------------------------------------------------
 G-N FLUX        PARENT        CHILD         DIFFERENCE      % DIFFERENCE
  RATE IN:      1.6975E+03    1.6976E+03    -1.7383E-01       -0.0102
 RATE OUT:      2.0322E+03    2.0325E+03    -2.1741E-01       -0.0107
