
                       OWHM 1.0
    U.S. GEOLOGICAL SURVEY MODULAR FINITE-DIFFERENCE 
         ONE-WATER HYDROLOGIC-FLOW MODEL [OWHM]
              Version 1.0.0   11/05/2014

 INCLUDES:
          MODFLOW-2005 Version 1.11.0  08/08/2013
          FMP          Version 3.0.0   08/01/2014
          SWR          Version 1.03.0  09/24/2013
          SWI          Version 2.0.0   07/22/2013
          LGR          Version 2.0.0   09/19/2013
          NWT          Version 1.0.9   07/01/2014


 LIST FILE: ../../test-out-owhm-lgr/fmp-lgr-nwt/OWHM_EX2.lst
                         UNIT    7

 OPENING OWHM_EX2.upw
 FILE TYPE:UPW   UNIT    9   STATUS:OLD    
 FORMAT:FORMATTED              ACCESS:SEQUENTIAL          

 OPENING OWHM_EX2.ba6
 FILE TYPE:BAS6   UNIT   10   STATUS:OLD    
 FORMAT:FORMATTED              ACCESS:SEQUENTIAL          

 OPENING OWHM_EX2.dis
 FILE TYPE:DIS   UNIT   11   STATUS:OLD    
 FORMAT:FORMATTED              ACCESS:SEQUENTIAL          

 OPENING OWHM_EX2.fmp
 FILE TYPE:FMP   UNIT   12   STATUS:OLD    
 FORMAT:FORMATTED              ACCESS:SEQUENTIAL          

 OPENING OWHM_EX2.sfr
 FILE TYPE:SFR   UNIT   14   STATUS:OLD    
 FORMAT:FORMATTED              ACCESS:SEQUENTIAL          

 OPENING OWHM_EX2_MNW1.mnw
 FILE TYPE:MNW1   UNIT   15   STATUS:OLD    
 FORMAT:FORMATTED              ACCESS:SEQUENTIAL          

 OPENING OWHM_EX2.ghb
 FILE TYPE:GHB   UNIT   16   STATUS:OLD    
 FORMAT:FORMATTED              ACCESS:SEQUENTIAL          
#uzf          17 OWHM_EX2.uzf                                                                                                                                                                                                                                                                                                                                                                                                                                                                                                                                                                                                                                                                                               

 OPENING OWHM_EX2.oc
 FILE TYPE:OC   UNIT   19   STATUS:OLD    
 FORMAT:FORMATTED              ACCESS:SEQUENTIAL          
#hyd          21 hyd_all.hyd                                                                                                                                                                                                                                                                                                                                                                                                                                                                                                                                                                                                                                                                                                
# Solvers                                                                                                                                                                                                                                                                                                                                                                                                                                                                                                                                                                                                                                                                                                                   

 OPENING OWHM_EX2.nwt
 FILE TYPE:NWT   UNIT   18   STATUS:OLD    
 FORMAT:FORMATTED              ACCESS:SEQUENTIAL          
#DATA                                                                                                                                                                                                                                                                                                                                                                                                                                                                                                                                                                                                                                                                                                                       

 OPENING ../../test-out-owhm-lgr/fmp-lgr-lpf/OWHM_EX2.hed
 FILE TYPE:DATA   UNIT   22   STATUS:UNKNOWN
 FORMAT:FORMATTED              ACCESS:SEQUENTIAL          
#FMP Datafiles                                                                                                                                                                                                                                                                                                                                                                                                                                                                                                                                                                                                                                                                                                              

 OPENING ./DATA_FMP/OFE.in
 FILE TYPE:DATA   UNIT   20   STATUS:OLD    
 FORMAT:FORMATTED              ACCESS:SEQUENTIAL          

 OPENING ./DATA_FMP/ROOT.in
 FILE TYPE:DATA   UNIT   30   STATUS:OLD    
 FORMAT:FORMATTED              ACCESS:SEQUENTIAL          

 OPENING ./DATA_FMP/KC.in
 FILE TYPE:DATA   UNIT   40   STATUS:OLD    
 FORMAT:FORMATTED              ACCESS:SEQUENTIAL          

 OPENING ./DATA_FMP/FTE.in
 FILE TYPE:DATA   UNIT   50   STATUS:OLD    
 FORMAT:FORMATTED              ACCESS:SEQUENTIAL          

 OPENING ./DATA_FMP/INEFFSW.in
 FILE TYPE:DATA   UNIT   60   STATUS:OLD    
 FORMAT:FORMATTED              ACCESS:SEQUENTIAL          

 OPENING ./DATA_FMP/NRDFAC.in
 FILE TYPE:DATA   UNIT   80   STATUS:OLD    
 FORMAT:FORMATTED              ACCESS:SEQUENTIAL          
#                                                                                                                                                                                                                                                                                                                                                                                                                                                                                                                                                                                                                                                                                                                           

 OPENING ../../test-out-owhm-lgr/fmp-lgr-nwt/CBC.OUT
 FILE TYPE:DATA(BINARY)   UNIT   70   STATUS:UNKNOWN
 FORMAT:UNFORMATTED            ACCESS:STREAM              

 OPENING ../../test-out-owhm-lgr/fmp-lgr-nwt/SFR_OUTPUT.txt
 FILE TYPE:DATA   UNIT   69   STATUS:UNKNOWN
 FORMAT:FORMATTED              ACCESS:SEQUENTIAL          
#DATA(BINARY)  71 ../../test-out-owhm-lgr/fmp-lgr-nwt/hyd_all.sav                                                                                                                                                                                                                                                                                                                                                                                                                                                                                                                                                                                                                                                           
#DATA(BINARY)  61 ../../test-out-owhm-lgr/fmp-lgr-nwt/f5&8bin.uzfot  Output file for recharge and ground-water discharge                                                                                                                                                                                                                                                                                                                                                                                                                                                                                                                                                                                                    
#DATA          62 ../../test-out-owhm-lgr/fmp-lgr-nwt/f5_r2c2.opt1   Output file for cell in row 2, col. 2 of farm 5 using IUZOPT=1                                                                                                                                                                                                                                                                                                                                                                                                                                                                                                                                                                                         
#DATA          63 ../../test-out-owhm-lgr/fmp-lgr-nwt/f5_r3c3.opt2   Output file for cell in row 3, col. 3 of farm 5 using IUZOPT=2                                                                                                                                                                                                                                                                                                                                                                                                                                                                                                                                                                                         
#DATA          64 ../../test-out-owhm-lgr/fmp-lgr-nwt/f5_r4c4.opt3   Output file for cell in row 4, col. 4 of farm 5 using IUZOPT=3                                                                                                                                                                                                                                                                                                                                                                                                                                                                                                                                                                                         
#DATA          65 ../../test-out-owhm-lgr/fmp-lgr-nwt/f5_r5c4.opt2   Output file for cell in row 5, col. 4 of farm 5 using IUZOPT=2                                                                                                                                                                                                                                                                                                                                                                                                                                                                                                                                                                                         
#DATA          66 ../../test-out-owhm-lgr/fmp-lgr-nwt/f8_r10c20.opt2 Output file for cell in row 10, col. 20 of farm 8 using IUZOPT=2                                                                                                                                                                                                                                                                                                                                                                                                                                                                                                                                                                                       
#DATA          67 ../../test-out-owhm-lgr/fmp-lgr-nwt/f5&8.uzfot     Output file of times series of unsaturated-zone water budgets                                                                                                                                                                                                                                                                                                                                                                                                                                                                                                                                                                                          

 BAS -- BASIC PACKAGE, VERSION 7, 5/2/2005 INPUT READ FROM UNIT   10
 
 MODFLOW was compiled using mixed precision
 Precision of REAL variables:           6
 Precision of DOUBLE PRECISION variables:          15

 DISCRETIZATION INPUT DATA READ FROM UNIT   11
 # generic model 1 transient discretization file

*** DIS COORDINATE SYSTEM NOT SEPECIFIED ***
DEFAULT VALUES APPLIED ARE 0° ROTATION
WITH THE ORIGIN (0,0) LOCATED AT THE MODEL'S LOWER LEFT CORNER


    4 LAYERS        23 ROWS        20 COLUMNS
     24 STRESS PERIOD(S) IN SIMULATION
 MODEL TIME UNIT IS DAYS
 MODEL LENGTH UNIT IS METERS
  Confining bed flag for each layer:
   1   1   1   0

                     DELR =   500.000    

                     DELC =   500.000    

 OPENING FILE ON UNIT   99:
 ./DATA_FMP/GSE.in                                                                                                                                                                                                                                                                                                                                                                                                                                                                                                                                                                                                                                                                                                           



           TOP ELEVATION OF LAYER 1
 READING ON UNIT   99 WITH FORMAT: (FREE)              

   MODEL LAYER BOTTOM EL. =   205.000     FOR LAYER   1

 BOT. EL. OF QUASI-3D BED =   200.000     FOR LAYER   1

   MODEL LAYER BOTTOM EL. =   140.000     FOR LAYER   2

 BOT. EL. OF QUASI-3D BED =   125.000     FOR LAYER   2

   MODEL LAYER BOTTOM EL. =   65.0000     FOR LAYER   3

 BOT. EL. OF QUASI-3D BED =   60.0000     FOR LAYER   3

   MODEL LAYER BOTTOM EL. =   0.00000     FOR LAYER   4


 STRESS PERIOD     LENGTH       TIME STEPS     MULTIPLIER FOR DELT    SS FLAG
 ----------------------------------------------------------------------------
        1         30.42000          2                    1.000         TR
        2         30.42000          2                    1.000         TR
        3         30.42000          2                    1.000         TR
        4         30.42000          2                    1.000         TR
        5         30.42000          2                    1.000         TR
        6         30.42000          2                    1.000         TR
        7         30.42000          2                    1.000         TR
        8         30.42000          2                    1.000         TR
        9         30.42000          2                    1.000         TR
       10         30.42000          2                    1.000         TR
       11         30.42000          2                    1.000         TR
       12         30.42000          2                    1.000         TR
       13         30.42000          2                    1.000         TR
       14         30.42000          2                    1.000         TR
       15         30.42000          2                    1.000         TR
       16         30.42000          2                    1.000         TR
       17         30.42000          2                    1.000         TR
       18         30.42000          2                    1.000         TR
       19         30.42000          2                    1.000         TR
       20         30.42000          2                    1.000         TR
       21         30.42000          2                    1.000         TR
       22         30.42000          2                    1.000         TR
       23         30.42000          2                    1.000         TR
       24         30.42000          2                    1.000         TR

 TRANSIENT SIMULATION



 
 # generic model 1                                                               
 THE FREE FORMAT OPTION HAS BEEN SELECTED

 THE MAX STORAGE FOR PROPERTIES DEFINED BY PARAMETERS IS: 
 MAX STORAGE OF PARAMETERS (MXPAR)  IS       2000
 MAX STORAGE OF INSTANCES  (MXINST) IS      50000
 MAX STORAGE OF CLUSTERS   (MXCLST) IS    2000000




                     BOUNDARY ARRAY FOR LAYER   1
 READING ON UNIT   10 WITH FORMAT: (FREE)              



                     BOUNDARY ARRAY FOR LAYER   2
 READING ON UNIT   10 WITH FORMAT: (FREE)              



                     BOUNDARY ARRAY FOR LAYER   3
 READING ON UNIT   10 WITH FORMAT: (FREE)              



                     BOUNDARY ARRAY FOR LAYER   4
 READING ON UNIT   10 WITH FORMAT: (FREE)              

CHECKING FOR VALID MODEL DIMENIONS FOR DELR, DELC, AND THICKNESS


 AQUIFER HEAD WILL BE SET TO  -9.9900     AT ALL NO-FLOW NODES (IBOUND=0).



                       INITIAL HEAD FOR LAYER   1
 READING ON UNIT   10 WITH FORMAT: (FREE)              



                       INITIAL HEAD FOR LAYER   2
 READING ON UNIT   10 WITH FORMAT: (FREE)              



                       INITIAL HEAD FOR LAYER   3
 READING ON UNIT   10 WITH FORMAT: (FREE)              



                       INITIAL HEAD FOR LAYER   4
 READING ON UNIT   10 WITH FORMAT: (FREE)              

 OUTPUT CONTROL IS SPECIFIED ONLY AT TIME STEPS FOR WHICH OUTPUT IS DESIRED
 HEADS WILL BE SAVED WITH FORMAT: (100F8.2)           
 SAVED HEADS WILL BE LABELED
 COMPACT CELL-BY-CELL BUDGET FILES WILL BE WRITTEN
 HEAD PRINT FORMAT CODE IS  -3    DRAWDOWN PRINT FORMAT CODE IS   0
 HEADS WILL BE SAVED ON UNIT   22    DRAWDOWNS WILL BE SAVED ON UNIT    0  WATER BUDGETs WILL BE SAVED ON UNIT 

 LGR2 -- LOCAL GRID REFINEMENT, VERSION 2.0, 06/25/2013
        INPUT READ FOR MODEL  1 DEFINED BY NAME FILE OWHM_EX2.nam

 LOCAL GRID REFINEMENT IS ACTIVE FOR PARENT ONLY
 # NWT: Newton Solver file created on 3/20/2013 by ModelMuse version 2.18.1.0.

 NWT1 -- Newton Solver, VERSION 1.0.9, 07/01/2014
         INPUT READ FROM UNIT   18

 COMPLEX OPTION:
 DEFAULT SOLVER INPUT VALUES REFLECT STRONGLY NONLINEAR MODEL
 ***GMRES linear solver will be used***
 
   CONVERGENCE CRITERION OF   0.100000E-03 FOR HEAD SOLUTION
   AND A TOLERANCE OF   0.500000E+03 FOR FLOW SOLUTION AND 
   A MAXIMUM OF   100 OUTER ITERATIONS. 


   D-B-D REDUCTION FACTOR OF    0.850000E+00 AND 
   A D-B-D INCREASE FACTOR OF    0.100000E-04 AND 
   A D-B-D RELAXATION OF    0.000000E+00 AND 
   A MOMENTUM FACTOR OF    0.100000E+00 .


   BACKTRACKING IS ACTIVE 
   THE MAXIMUM NUMBER OF BACKTRACKS IS    50 AND 
   THE BACKTRACKING TOLERANCE IS    0.110000E+01 AND
   THE BACKTRACKING REDUCTION FACTOR IS    0.700000E+00

 GMRES -- LINEAR SOLUTION BY GMRES PACKAGE 
     UNIT:    18
     adapted for HYDROTHERM by Kipp and others (2008)
     using software originally developed by Saad (1990)
     using algorithms described in Saad (2003)

 UPW1 -- UPSTREAM WEIGHTING FLOW PACKAGE, VERSION 1.0.6, 12/05/2012
         INPUT READ FROM UNIT  9

 CELL-BY-CELL FLOWS WILL BE SAVED ON UNIT   70
 No named parameters

   LAYER FLAGS:
 LAYER       LAYTYP          LAYAVG    CHANI           LAYVKA           LAYWET
 ---------------------------------------------------------------------------
    1             1             0     1.000E+00             1             0
    2             0             0     1.000E+00             1             0
    3             0             0     1.000E+00             1             0
    4             0             0     1.000E+00             1             0

   INTERPRETATION OF LAYER FLAGS:
                        INTERBLOCK     HORIZONTAL    DATA IN
         LAYER TYPE   TRANSMISSIVITY   ANISOTROPY   ARRAY VKA   WETTABILITY
 LAYER   (LAYTYP)        (LAYAVG)      (CHANI)     (LAYVKA)       (LAYWET)
 ---------------------------------------------------------------------------
    1   CONVERTIBLE      HARMONIC     1.000E+00    ANISOTROPY  NON-WETTABLE
    2      CONFINED      HARMONIC     1.000E+00    ANISOTROPY  NON-WETTABLE
    3      CONFINED      HARMONIC     1.000E+00    ANISOTROPY  NON-WETTABLE
    4      CONFINED      HARMONIC     1.000E+00    ANISOTROPY  NON-WETTABLE

    HYD. COND. ALONG ROWS =   10.0000     FOR LAYER   1

  HORIZ. TO VERTICAL ANI. =   1.00000     FOR LAYER   1

         SPECIFIC STORAGE =  1.000000E-05 FOR LAYER   1

           SPECIFIC YIELD =  2.000000E-02 FOR LAYER   1

 QUASI3D VERT. HYD. COND. =  2.000000E-03 FOR LAYER   1

    HYD. COND. ALONG ROWS =   1.50000     FOR LAYER   2

  HORIZ. TO VERTICAL ANI. =   1.00000     FOR LAYER   2

         SPECIFIC STORAGE =  1.000000E-05 FOR LAYER   2

 QUASI3D VERT. HYD. COND. =  1.000000E-03 FOR LAYER   2

    HYD. COND. ALONG ROWS =   1.00000     FOR LAYER   3

  HORIZ. TO VERTICAL ANI. =   1.00000     FOR LAYER   3

         SPECIFIC STORAGE =  1.000000E-05 FOR LAYER   3

 QUASI3D VERT. HYD. COND. =  5.000000E-04 FOR LAYER   3

    HYD. COND. ALONG ROWS =  0.150000     FOR LAYER   4

  HORIZ. TO VERTICAL ANI. =   1.00000     FOR LAYER   4

         SPECIFIC STORAGE =  1.000000E-05 FOR LAYER   4

 GHB -- GENERAL-HEAD BOUNDARY PACKAGE, VERSION 7, 5/2/2005
         INPUT READ FROM UNIT   16
 No named parameters

 NO TABFILE SPECIFIED FOR PACKAGE GHB 

 MAXIMUM OF     92 ACTIVE GHB CELLS AT ONE TIME
 CELL-BY-CELL FLOWS WILL BE SAVED ON UNIT   70


     0 GHB parameters

 SFR7 -- STREAMFLOW ROUTING PACKAGE, VERSION 1.0.5, 2012-04-05
         INPUT READ FROM UNIT   14
 # Project 1 New Stream Aquifer Package
 No named parameters
 Segment information will not be 
 read by reach
 No named parameters

 NO TABFILE SPECIFIED FOR PACKAGE SFR 

 No specifed inflow files
 AUXILIARY STREAM FLOW ROUTING VARIABLE: LGRGRID         
 AUXILIARY STREAM FLOW ROUTING VARIABLE: LGRSEG          


 NUMBER OF STREAM REACHES IS  100

 NUMBER OF STREAM SEGMENTS IS   13

 NUMBER OF STREAM PARAMETERS IS    0

 NUMBER OF STREAM SEGMENTS DEFINED USING PARAMETERS IS              0

 MAXIMUM ERROR FOR STREAM LEAKAGE RATES IS  1.00E-04

 CONSTANT FOR MANNINGS EQUATION IS  8.6400E+04



 FLOW TO AND FROM GROUND WATER FOR EACH STREAM REACH WILL BE SAVED ON UNIT   70
 STREAM OUTPUT WILL BE WRITTEN TO FILE ON UNIT   69


   STREAM NETWORK DESCRIPTION: 

   LAYER    ROW    COL   SEGMENT   REACH     LENGTH
                          NUMBER   NUMBER    IN CELL        
   --------------------------------------------------
      1     13      1       1        1    5.0000E+02
      1     13      2       1        2    5.0000E+02
      1     13      3       1        3    2.5000E+02
      1     13      3       2        1    2.5000E+02
      1     12      3       2        2    5.0000E+02
      1     11      3       2        3    5.0000E+02
      1     10      3       2        4    5.0000E+02
      1      9      3       2        5    5.0000E+02
      1      8      3       2        6    5.0000E+02
      1      7      3       2        7    5.0000E+02
      1      6      3       2        8    5.0000E+02
      1      5      3       2        9    5.0000E+02
      1      4      3       2       10    5.0000E+02
      1      3      3       2       11    5.0000E+02
      1      3      4       2       12    5.0000E+02
      1      3      5       2       13    5.0000E+02
      1      3      6       2       14    5.0000E+02
      1      3      7       2       15    5.0000E+02
      1      3      8       2       16    5.0000E+02
      1      3      9       2       17    5.0000E+02
      1      3     10       2       18    5.0000E+02
      1      3     11       2       19    5.0000E+02
      1      3     12       2       20    5.0000E+02
      1      4     12       2       21    5.0000E+02
      1      5     12       2       22    5.0000E+02
      1      6     12       2       23    5.0000E+02
      1      7     12       2       24    5.0000E+02
      1      8     12       2       25    5.0000E+02
      1      9     12       2       26    5.0000E+02
      1     10     12       2       27    2.5000E+02
      1     10      7       3        1    2.5000E+02
      1     10      8       3        2    5.0000E+02
      1     10      9       3        3    5.0000E+02
      1     10     12       4        1    2.5000E+02
      1     11     12       4        2    5.0000E+02
      1     12     12       4        3    5.0000E+02
      1     13     12       4        4    2.5000E+02
      1     13      3       5        1    2.5000E+02
      1     13      4       5        2    5.0000E+02
      1     13      5       5        3    2.5000E+02
      1     13      5       6        1    2.5000E+02
      1     14      5       6        2    5.0000E+02
      1     15      5       6        3    5.0000E+02
      1     16      5       6        4    5.0000E+02
      1     17      5       6        5    5.0000E+02
      1     18      5       6        6    5.0000E+02
      1     19      5       6        7    5.0000E+02
      1     20      5       6        8    5.0000E+02
      1     20      6       6        9    5.0000E+02
      1     20      7       6       10    5.0000E+02
      1     20      8       6       11    5.0000E+02
      1     20      9       6       12    5.0000E+02
      1     20     10       6       13    5.0000E+02
      1     20     11       6       14    5.0000E+02
      1     20     12       6       15    5.0000E+02
      1     20     13       6       16    5.0000E+02
      1     20     14       6       17    5.0000E+02
      1     20     15       6       18    5.0000E+02
      1     20     16       6       19    5.0000E+02
      1     20     17       6       20    5.0000E+02
      1     19     17       6       21    5.0000E+02
      1     18     17       6       22    5.0000E+02
      1     17     17       6       23    5.0000E+02
      1     16     17       6       24    2.5000E+02
      1     16      7       7        1    2.5000E+02
      1     16      8       7        2    5.0000E+02
      1     16      9       7        3    5.0000E+02
      1     16     10       7        4    5.0000E+02
      1     16     11       7        5    5.0000E+02
      1     16     12       7        6    5.0000E+02
      1     16     13       7        7    5.0000E+02
      1     16     14       7        8    5.0000E+02
      1     16     15       7        9    5.0000E+02
      1     16     16       7       10    5.0000E+02
      1     16     17       7       11    2.5000E+02
      1     16     17       8        1    2.5000E+02
      1     15     17       8        2    5.0000E+02
      1     14     17       8        3    5.0000E+02
      1     13     17       8        4    2.5000E+02
      1     13      5       9        1    2.5000E+02
      1     13      6       9        2    5.0000E+02
      1     13      7       9        3    5.0000E+02
      1     13      8       9        4    5.0000E+02
      1     13      9       9        5    5.0000E+02
      1     13     10       9        6    5.0000E+02
      1     13     11       9        7    5.0000E+02
      1     13     12       9        8    2.5000E+02
      1     13     12      10        1    2.5000E+02
      1     13     13      10        2    5.0000E+02
      1     13     14      10        3    5.0000E+02
      1     13     15      10        4    5.0000E+02
      1     13     16      10        5    5.0000E+02
      1     13     17      10        6    2.5000E+02
      1     13     17      11        1    2.5000E+02
      1     13     18      11        2    5.0000E+02
      1     13     19      11        3    5.0000E+02
      1     13     20      11        4    5.0000E+02
      1     10     10      12        1    5.0000E+02
      1     10     11      12        2    5.0000E+02
      1     10     12      13        1    2.5000E+02




 MNW1 -- MULTI-NODE WELL 1 PACKAGE, VERSION 7, 04/05/2012.
    INPUT READ FROM UNIT  15
 MAXIMUM OF     18 WELLS
 CELL-BY-CELL FLOWS WILL BE RECORDED ON UNIT 70
  The heads at the beginning of SP:   1 will be the default reference elevations.

 Flow rates will not be estimated after the 9999th iteration

  A WEL1   data input file will be written to t.wl1 on unit   91                

  A BYNODE data input file will be written to t.ByNode on unit   92             

  A QSUM   data input file will be written to t.Qsum on unit   93               


 FMP3 -- FARM PROCESS, VERSION 3.0, 06/15/1998 03:37:00
 INPUT READ FROM UNIT
 # FMP2 Example Model -- ZERO SCENARIO / EQUAL APPROPRATION
               1 Named Parameters                  15 List entries

 DIMENSIONS:
   MAXIMUM OF     30 FARM WELLS
   MAXIMUM OF        8 FARMS
   TOTAL OF        3 SOIL-TYPES
   TOTAL OF        6 CROP-TYPES

 WHEN TO READ SETTINGS:
   ROOT ZONE DEPTHS ............................  SPECIFIED FOR EACH STRESS PERIOD
   CROP COEFFICIENTS ...........................  AND
   REFERENCE EVAPOTRANSPIRATION FLUX ...........  SPECIFIED FOR EACH STRESS PERIOD
   PRECIPITATION FLUX ..........................  SPECIFIED FOR EACH STRESS PERIOD
   FRACTIONS OF TRANS. & EVAP. OF CONSUMPTIVE USE SPECIFIED FOR EACH STRESS PERIOD
   FRACTIONS OF IN-EFFICIENT LOSSES TO SW-RUNOFF  SPECIFIED FOR EACH STRESS PERIOD
   ON-FARM EFFICIENCIES ........................  SPECIFIED FOR EACH STRESS PERIOD
   WATER-BALANCE SUBREGIONS (FARMS).............  SPECIFIED FOR THE ENTIRE SIMULATION

 WATER POLICY SETTINGS:
   EFFICIENCY BEHAVIOR: CONSERVATIVE BEHAVIOR: CONSTANT EFFICIENCY OVER A TIME STEP
                        EFFICIENCY DOES NOT VARY WITH CHANGING GROUNDWATER LEVEL, BUT
                        DELIVERY MAY VARY WITH CHANGING GROUNDWATER LEVEL
                        EFF. RESET TO SPEC. EFF. AT BEG. OF EACH TIME STEP
   NO DEFICIENCY SCENARIO APPLIED (ZERO SCENARIO)
     ASSUMPTION FOR DEFICIENCY CASE: SUPPLY = DEMAND, I.E.
     SUPPLY SUFFICIENTLY SUPPLEMENTED FROM OUTSIDE MODELING DOMAIN
   NO NON-IRRIGATION-SEASON HAS BEEN SELECTED
   NO GROUNDWATER ALLOTMENTS (Volumetric Rate) HAVE BEEN SELECTED -- Maximum Groundwater Delivery limited by Total Capacity of all Farm wells per Farm per Stress Period

 CONSUMPTIVE USE CONCEPT 1: Tgw-act-max < Tc-act-max < Tpot
   (REDUCTION OF ACTUAL TRANSPIRATION ~ RED. OF ROOT ZONE BY ZONES OF WILTING & ANOXIA
    APPROXIMATED BY CROP- & SOIL-TYPE SPECIFIC ANALYTICAL SOLUTION)

 SURFACE-WATER SETTINGS (SUPPLY / RETURNFLOW / RIGHTS:
   FARM DELIVERY REQUIREMENT SUPPLIED BY:
     NON-ROUTED SURFACE-WATER DELIVERIES (FIRST PRIORITY).
     MAXIMUM NUMBER OF NON-ROUTED DELIVERY TYPES =    1
   FARM DELIVERY REQUIREMENT SUPPLIED BY:
     SEMI-ROUTED SURFACE-WATER DELIVERIES (SECOND PRIORITY).
   DIVERSION REACHES FOR SEMI-ROUTED DELIVERIES.  SPECIFIED FOR THE ENTIRE SIMULATION
   NO ROUTED SURFACE-WATER DELIVERY EXISTS
   FARM RUNOFF RETURNED TO STREAM-NETWORK BY:
     SEMI-ROUTED SURFACE-WATER RETURNFLOW
     (NON-ROUTED TO & ROUTED FROM SPECIFIED REACH THAT IS OUTSIDE THE FARM)
   REACHES RECEIVING SEMI-ROUTED RETURNFLOW ....  SPECIFIED FOR THE ENTIRE SIMULATION
   FARM RUNOFF RETURNED TO STREAM-NETWORK BY:
     FULLY ROUTED SURFACE-WATER RETURNFLOW
     FROM FARMS WITHOUT SPECIFIED SEMI-ROUTED RETURNFLOW LOCATIONS
     TO ALL REACHES OF ANY STREAM SEGMENT LOCATED WITHIN EACH FARM
   EQUAL APPROPRIATION SW ALLOTMENT HEIGHT SELECTED

 PRINT SETTINGS:
   FARM WELL FLOW RATES:
     A LIST (FARM-WELL ID, FARM ID, LAY, ROW, COL, RATE) IS SAVED 
     ON ASCII FILE "FWELLS.OUT" FOR ALL TIME STEPS
   FARM NET RECHARGE FLOW RATES:
     A 2D INTEGER-ARRAY OF EACH CELLS UPPERMOST ACTIVE LAYER, AND
     A 2D REAL-ARRAY OF EACH CELLS NET RECHARGE RATE 
     WILL BE SAVED AS BINARY FILE ON UNIT   70 FOR TIME STEPS, FOR WHICH IN OUTPUT CONTOL
     "SAVE BUDGET" IS SPECIFIED (USING WORDS), OR ICBCFL IS NOT 0 (USING NUMERIC CODES)
   FARM DEMAND & SUPPLY FLOW RATES:
     A LIST OF INITIAL DEMAND & SUPPLY FLOW RATES, AND OF
     FINAL DEMAND AND SUPPLY FLOW RATES AFTER THE APPLICATION OF A DEFICIENCY SCENARIO
     WILL BE SAVED ON ASCII-FILE "FDS.OUT" FOR ALL TIME STEPS.  LIST =
     (PER,TSTP,TIME,FID,OFE,
      TFDR-INI,NR-SWD-INI,R-SWD-INI,QREQ,TFDR-FIN,NR-SWD-FIN,R-SWD-FIN,QREQ,Q,DEF-FLAG)
     (<-- BEFORE DEFICIENCY SCENARIO --> <--       AFTER DEFICIENCY SCENARIO       -->)
   DETAILED FARM BUDGET:
     A LIST OF VOLUMETRIC FLOW RATES FOR ANY TIME STEP [L^3/T], AND OF CUMULATIVE VOLUMES [L^3] 
     WILL BE SAVED ON ASCII-FILE "FB_DETAILS.OUT" FOR ALL TIME STEPS.
      LIST = (PER,TSTP,TIME,FID;
      RATES INTO FARM: Q-p-in, Q-nrd-in, Q-srd-in, Q-rd-in, Q-wells-in, Q-egw-in, Q-tgw-in, Q-ext-in, Q-tot-in,
      RATES OUT OF FARM: Q-ei-out, Q-ep-out, Q-egw-out, Q-ti-out, Q-tp-out, Q-tgw-out Q-run-out, Q-dp-out, Q-nrd-out, Q-srd-out, Q-rd-out, Q-wells-out, Q-tot-out,
      RATE BUDGET ERROR: Q-in-minus-out, Q-Discrepancy [%];
      CUMULATIVE VOLUMES INTO FARM: V-p-in, V-nrd-in, V-srd-in, V-rd-in, V-wells-in, V-egw-in, V-tgw-in, V-ext-in, V-tot-in,
      CUMULATIVE VOLUMES OUT OF FARM: V-ei-out, V-ep-out, V-egw-out, V-ti-out, V-tp-out, V-tgw-out V-run-out, V-dp-out, V-nrd-out, V-srd-out, V-rd-out, V-wells-out, V-tot-out,
      VOLUMETRIC BUDGET ERROR: Q-in-minus-out, Q-Discrepancy [%])
   ROUTING INFOMATION:
     WRITTEN TO ASCII FILE "ROUT.OUT" FOR FIRST STRESS PERIOD ONLY
 
 AUXILIARY FARM WELL PARAMETER: QMAXRESET       


     1 Farm Well parameters

 PARAMETER NAME:WELLS1       TYPE:QMAX
 Parameter value from package file is:    1000.0    
   NUMBER OF ENTRIES:     15

 OPENING FILE ON UNIT   99:
 ./DATA_FMP/WELLS.in                                                                                                                                                                                                                                                                                                                                                                                                                                                                                                                                                                                                                                                                                                         
  PHIRAMP WILL BE SET TO A DEFAULT VALUE OF 0.05
  WELLS WITH REDUCED PUMPING WILL BE REPORTED TO THE MAIN LISTING FILE

 WELL NO. LAYER    ROW    COL  F-WELL ID    FARM ID      QMAXfac         QMAXRESET       
 ----------------------------------------------------------------------------------------
       1      1      5      6          1          1      5.0000E+00              0
       2      1      8      7          2          1      5.0000E+00              0
       3      1      8      9          3          1      5.0000E+00              0
       4      1      5      9          4          2      3.0000E+00              0
       5      1      6     10          5          2      2.0000E+00              0
       6      1      7     11          6          2      1.0000E+00              0
       7      1     18      3          7          3      2.0000E+00              0
       8      1     21      3          8          3      4.0000E+00              0
       9      1     18     19          9          4      3.0000E+00              0
      10      1     21     19         10          4      5.0000E+00              0
      11      0      6      2        -11          5      5.0000E+00              1
      12      0      8      2        -12          5      5.0000E+00              1
      13      0     10      2        -13          5      5.0000E+00              1
      14      0      3     19        -14          6      1.0000E+01              1
      15      0      6     17        -15          6      6.0000E+00              1

 OPENING FILE ON UNIT   99:
 ./DATA_FMP/GSE.in                                                                                                                                                                                                                                                                                                                                                                                                                                                                                                                                                                                                                                                                                                           



                     GROUND SURFACE
 READING ON UNIT   99 WITH FORMAT: (FREE)              

 OPENING FILE ON UNIT   99:
 ./DATA_FMP/FID.in                                                                                                                                                                                                                                                                                                                                                                                                                                                                                                                                                                                                                                                                                                           



                FARM IDENTIFICATION
 READING ON UNIT   99 WITH FORMAT: (FREE)              

 OPENING FILE ON UNIT   99:
 ./DATA_FMP/SID.in                                                                                                                                                                                                                                                                                                                                                                                                                                                                                                                                                                                                                                                                                                           



           SOIL TYPE IDENTIFICATION
 READING ON UNIT   99 WITH FORMAT: (FREE)              

 OPENING FILE ON UNIT   99:
 ./DATA_FMP/SOILLIST.in                                                                                                                                                                                                                                                                                                                                                                                                                                                                                                                                                                                                                                                                                                      

 OPENING FILE ON UNIT   99:
 ./DATA_FMP/CID.in                                                                                                                                                                                                                                                                                                                                                                                                                                                                                                                                                                                                                                                                                                           



                CROP IDENTIFICATION
 READING ON UNIT   99 WITH FORMAT: (FREE)              

 OPENING FILE WITH FILENAME: ./DATA_FMP/PSI.in
 AND UNIT NUMBER: -134

 OPENING FILE ON UNIT   99:
 ./DATA_FMP/SRD.in                                                                                                                                                                                                                                                                                                                                                                                                                                                                                                                                                                                                                                                                                                           

 SEMI-ROUTED DELIVERIES TO FARMS (LOCATION OF DIVERSION-POINT):
 FARM-ID    ROW    COLUMN   SEGMENT     REACH
       1      3         5         2        13
       2      3         8         2        16
       3     17         5         6         5
       4     20        12         6        15
       5      0         0         0         0
       6     13        15        10         4
       7      0         0         0         0
       8      0         0         0         0

 OPENING FILE ON UNIT   99:
 ./DATA_FMP/SRR.in                                                                                                                                                                                                                                                                                                                                                                                                                                                                                                                                                                                                                                                                                                           

 SEMI-ROUTED RUNOFF-RETURNFLOW FROM FARMS (LOCATION WHERE RUNOFF ENTERS A STREAM REACH):
 FARM-ID    ROW    COLUMN   SEGMENT     REACH
       1      0         0         0         0
       2      0         0         0         0
       3      0         0         0         0
       4      0         0         0         0
       5      0         0         0         0
       6      0         0         0         0
       7      0         0         0         0
       8      0         0         0         0
1
                            STRESS PERIOD NO.      1, LENGTH =   30.42000    
                            -----------------------------------------------

                              NUMBER OF TIME STEPS =     2

                               MULTIPLIER FOR DELT =     1.000

                            INITIAL TIME STEP SIZE =   15.21000    

PARAMETERS HAVE BEEN USED IN PACKAGES
THE CURRENT STORAGE FOR PARAMETERS IS: 
# PARAMETER=         1 WITH MAX STORAGE (MXPAR)  OF      2000
# INSTANCES=         0 WITH MAX STORAGE (MXINST) OF     50000
# CLUSTERS =         0 WITH MAX STORAGE (MXCLST) OF   2000000
YOU CAN INCREASE/DECREASE STORAGE WITH BAS OPTION:
MAXPARAM  MXPAR  MXCLST MXINST

 GHB PACKAGE STRESS PERIOD INFORMATION [BEFORE APPLICATION OF TABFILES]

 BOUND. NO. LAYER   ROW   COL     BHEAD      CONDUCTANCE  AUX                        
 ------------------------------------------------------------------------------------
      1      1      1      1       296.2           39.00    
      2      1      2      1       296.2           39.00    
      3      1      3      1       296.2           39.00    
      4      1      4      1       296.2           39.00    
      5      1      5      1       296.2           39.00    
      6      1      6      1       296.2           39.00    
      7      1      7      1       296.2           39.00    
      8      1      8      1       296.2           39.00    
      9      1      9      1       296.2           39.00    
     10      1     10      1       296.2           39.00    
     11      1     11      1       296.2           39.00    
     12      1     12      1       296.2           39.00    
     13      1     13      1       296.2           39.00    
     14      1     14      1       296.2           39.00    
     15      1     15      1       296.2           39.00    
     16      1     16      1       296.2           39.00    
     17      1     17      1       296.2           39.00    
     18      1     18      1       296.2           39.00    
     19      1     19      1       296.2           39.00    
     20      1     20      1       296.2           39.00    
     21      1     21      1       296.2           39.00    
     22      1     22      1       296.2           39.00    
     23      1     23      1       296.2           39.00    
     24      1      1     20       254.0           32.42    
     25      1      2     20       254.0           32.42    
     26      1      3     20       254.0           32.42    
     27      1      4     20       254.0           32.42    
     28      1      5     20       254.0           32.42    
     29      1      6     20       254.0           32.42    
     30      1      7     20       254.0           32.42    
     31      1      8     20       254.0           32.42    
     32      1      9     20       254.0           32.42    
     33      1     10     20       254.0           32.42    
     34      1     11     20       254.0           32.42    
     35      1     12     20       254.0           32.42    
     36      1     13     20       254.0           32.42    
     37      1     14     20       254.0           32.42    
     38      1     15     20       254.0           32.42    
     39      1     16     20       254.0           32.42    
     40      1     17     20       254.0           32.42    
     41      1     18     20       254.0           32.42    
     42      1     19     20       254.0           32.42    
     43      1     20     20       254.0           32.42    
     44      1     21     20       254.0           32.42    
     45      1     22     20       254.0           32.42    
     46      1     23     20       254.0           32.42    
     47      2      1      1       284.2           4.500    
     48      2      2      1       284.2           4.500    
     49      2      3      1       284.2           4.500    
     50      2      4      1       284.2           4.500    
     51      2      5      1       284.2           4.500    
     52      2      6      1       284.2           4.500    
     53      2      7      1       284.2           4.500    
     54      2      8      1       284.2           4.500    
     55      2      9      1       284.2           4.500    
     56      2     10      1       284.2           4.500    
     57      2     11      1       284.2           4.500    
     58      2     12      1       284.2           4.500    
     59      2     13      1       284.2           4.500    
     60      2     14      1       284.2           4.500    
     61      2     15      1       284.2           4.500    
     62      2     16      1       284.2           4.500    
     63      2     17      1       284.2           4.500    
     64      2     18      1       284.2           4.500    
     65      2     19      1       284.2           4.500    
     66      2     20      1       284.2           4.500    
     67      2     21      1       284.2           4.500    
     68      2     22      1       284.2           4.500    
     69      2     23      1       284.2           4.500    
     70      2      1     20       283.7           4.500    
     71      2      2     20       283.7           4.500    
     72      2      3     20       283.7           4.500    
     73      2      4     20       283.7           4.500    
     74      2      5     20       283.7           4.500    
     75      2      6     20       283.7           4.500    
     76      2      7     20       283.7           4.500    
     77      2      8     20       283.7           4.500    
     78      2      9     20       283.7           4.500    
     79      2     10     20       283.7           4.500    
     80      2     11     20       283.7           4.500    
     81      2     12     20       283.7           4.500    
     82      2     13     20       283.7           4.500    
     83      2     14     20       283.7           4.500    
     84      2     15     20       283.7           4.500    
     85      2     16     20       283.7           4.500    
     86      2     17     20       283.7           4.500    
     87      2     18     20       283.7           4.500    
     88      2     19     20       283.7           4.500    
     89      2     20     20       283.7           4.500    
     90      2     21     20       283.7           4.500    
     91      2     22     20       283.7           4.500    
     92      2     23     20       283.7           4.500    

     92 GHB CELLS



 CLASSIFICATION & COUNT OF STREAM SEGMENTS BASED ON SOURCE OF INFLOW:

                HEADWATER     DIVERSION     RECEIVES TRIBUTARY FLOW
                ---------     ---------     -----------------------
                     3              2               8




 SLOPE FOR SEGMENT AND REACH      2     1IS LESS THAN 1.0E-07: SETTING SLOPE TO 1.0E-06  1.0000E-06
 SLOPE FOR SEGMENT AND REACH      2     2IS LESS THAN 1.0E-07: SETTING SLOPE TO 1.0E-06  1.0000E-06
 SLOPE FOR SEGMENT AND REACH      2     3IS LESS THAN 1.0E-07: SETTING SLOPE TO 1.0E-06  1.0000E-06
 SLOPE FOR SEGMENT AND REACH      2     4IS LESS THAN 1.0E-07: SETTING SLOPE TO 1.0E-06  1.0000E-06
 SLOPE FOR SEGMENT AND REACH      2     5IS LESS THAN 1.0E-07: SETTING SLOPE TO 1.0E-06  1.0000E-06
 SLOPE FOR SEGMENT AND REACH      2     6IS LESS THAN 1.0E-07: SETTING SLOPE TO 1.0E-06  1.0000E-06
 SLOPE FOR SEGMENT AND REACH      2     7IS LESS THAN 1.0E-07: SETTING SLOPE TO 1.0E-06  1.0000E-06
 SLOPE FOR SEGMENT AND REACH      2     8IS LESS THAN 1.0E-07: SETTING SLOPE TO 1.0E-06  1.0000E-06
 SLOPE FOR SEGMENT AND REACH      2     9IS LESS THAN 1.0E-07: SETTING SLOPE TO 1.0E-06  1.0000E-06
 SLOPE FOR SEGMENT AND REACH      2    10IS LESS THAN 1.0E-07: SETTING SLOPE TO 1.0E-06  1.0000E-06
 SLOPE FOR SEGMENT AND REACH      6     1IS LESS THAN 1.0E-07: SETTING SLOPE TO 1.0E-06  1.0000E-06
 SLOPE FOR SEGMENT AND REACH      6     2IS LESS THAN 1.0E-07: SETTING SLOPE TO 1.0E-06  1.0000E-06
 SLOPE FOR SEGMENT AND REACH      6     3IS LESS THAN 1.0E-07: SETTING SLOPE TO 1.0E-06  1.0000E-06
 SLOPE FOR SEGMENT AND REACH      6     4IS LESS THAN 1.0E-07: SETTING SLOPE TO 1.0E-06  1.0000E-06
 SLOPE FOR SEGMENT AND REACH      6     5IS LESS THAN 1.0E-07: SETTING SLOPE TO 1.0E-06  1.0000E-06
 SLOPE FOR SEGMENT AND REACH      6     6IS LESS THAN 1.0E-07: SETTING SLOPE TO 1.0E-06  1.0000E-06
 SLOPE FOR SEGMENT AND REACH      6     7IS LESS THAN 1.0E-07: SETTING SLOPE TO 1.0E-06  1.0000E-06




             18 MNW WELLS
    No.   Lay   Row   Col    Stress   QW param      Rw       Skin    WL Limit    WL Refer   NonLinear Cp  QW Group  Cell-To-Well  Min-Qoff  Min-Qon  Site Identifier
      1     1     6     2  0.000     -1.000     0.1000      1.000      205.0      291.8      0.00000             1  690.162         0.000     0.000  NO-PRINT                        
      2     2     6     2  0.000     -1.000     0.1000      1.000      205.0      291.8      0.00000             2  71.6019         0.000     0.000  NO-PRINT                        
      3     3     6     2  0.000     -1.000     0.1000      1.000      205.0      291.8      0.00000             3  47.7346         0.000     0.000  NO-PRINT                        
      4     4     6     2  0.000     -1.000     0.1000      1.000      205.0      291.8      0.00000             4  7.16019         0.000     0.000  NO-PRINT                        
      5     1     8     2  0.000     -1.000     0.1000      1.000      205.0      292.0      0.00000             5  691.833         0.000     0.000  NO-PRINT                        
      6     2     8     2  0.000     -1.000     0.1000      1.000      205.0      292.0      0.00000             6  71.6019         0.000     0.000  NO-PRINT                        
      7     3     8     2  0.000     -1.000     0.1000      1.000      205.0      292.0      0.00000             7  47.7346         0.000     0.000  NO-PRINT                        
      8     4     8     2  0.000     -1.000     0.1000      1.000      205.0      292.0      0.00000             8  7.16019         0.000     0.000  NO-PRINT                        
      9     1    10     2  0.000     -1.000     0.1000      1.000      205.0      292.3      0.00000             9  694.618         0.000     0.000  NO-PRINT                        
     10     2    10     2  0.000     -1.000     0.1000      1.000      205.0      292.3      0.00000            10  71.6019         0.000     0.000  NO-PRINT                        
     11     3    10     2  0.000     -1.000     0.1000      1.000      205.0      292.3      0.00000            11  47.7346         0.000     0.000  NO-PRINT                        
     12     4    10     2  0.000     -1.000     0.1000      1.000      205.0      292.3      0.00000            12  7.16019         0.000     0.000  NO-PRINT                        
     13     2     3    19  0.000     -1.000     0.1000      1.000      205.0      280.3      0.00000            13  71.6019         0.000     0.000  NO-PRINT                        
     14     3     3    19  0.000     -1.000     0.1000      1.000      205.0      280.3      0.00000            14  47.7346         0.000     0.000  NO-PRINT                        
     15     4     3    19  0.000     -1.000     0.1000      1.000      205.0      280.3      0.00000            15  7.16019         0.000     0.000  NO-PRINT                        
     16     2     6    17  0.000     -1.000     0.1000      1.000      205.0      281.8      0.00000            16  71.6019         0.000     0.000  NO-PRINT                        
     17     3     6    17  0.000     -1.000     0.1000      1.000      205.0      281.8      0.00000            17  47.7346         0.000     0.000  NO-PRINT                        
     18     4     6    17  0.000     -1.000     0.1000      1.000      205.0      281.8      0.00000            18  7.16019         0.000     0.000  NO-PRINT                        

 OPENING FILE ON UNIT   99:
 ./DATA_FMP/WELLS.in                                                                                                                                                                                                                                                                                                                                                                                                                                                                                                                                                                                                                                                                                                         
  PHIRAMP WILL BE SET TO A DEFAULT VALUE OF 0.05
  WELLS WITH REDUCED PUMPING WILL BE REPORTED TO THE MAIN LISTING FILE

 WELL NO. LAYER    ROW    COL  F-WELL ID    FARM ID         QMAX         QMAXRESET       
 ----------------------------------------------------------------------------------------
       1      1      5      6          1          1      5.0000E+00              0
       2      1      8      7          2          1      5.0000E+00              0
       3      1      8      9          3          1      5.0000E+00              0
       4      1      5      9          4          2      3.0000E+00              0
       5      1      6     10          5          2      2.0000E+00              0
       6      1      7     11          6          2      1.0000E+00              0
       7      1     18      3          7          3      2.0000E+00              0
       8      1     21      3          8          3      4.0000E+00              0
       9      1     18     19          9          4      3.0000E+00              0
      10      1     21     19         10          4      5.0000E+00              0
      11      0      6      2        -11          5      5.0000E+00              1
      12      0      8      2        -12          5      5.0000E+00              1
      13      0     10      2        -13          5      5.0000E+00              1
      14      0      3     19        -14          6      1.0000E+01              1
      15      0      6     17        -15          6      6.0000E+00              1

 Parameter:  WELLS1
 WELL NO. LAYER    ROW    COL  F-WELL ID    FARM ID         QMAX         QMAXRESET       
 ----------------------------------------------------------------------------------------
      16      1      5      6          1          1      5.0000E+03              0
      17      1      8      7          2          1      5.0000E+03              0
      18      1      8      9          3          1      5.0000E+03              0
      19      1      5      9          4          2      3.0000E+03              0
      20      1      6     10          5          2      2.0000E+03              0
      21      1      7     11          6          2      1.0000E+03              0
      22      1     18      3          7          3      2.0000E+03              0
      23      1     21      3          8          3      4.0000E+03              0
      24      1     18     19          9          4      3.0000E+03              0
      25      1     21     19         10          4      5.0000E+03              0
      26      0      6      2        -11          5      5.0000E+03              1
      27      0      8      2        -12          5      5.0000E+03              1
      28      0     10      2        -13          5      5.0000E+03              1
      29      0      3     19        -14          6      1.0000E+04              1
      30      0      6     17        -15          6      6.0000E+03              1

 NUMBER OF ACTIVE FARM WELLS:       30

 FARM-ID  NUMBER OF WELLS PER FARM  TOTAL MAX.CAPACITY PER FARM
       1                         6                   15015.0000
       2                         6                    6006.0000
       3                         4                    6006.0000
       4                         4                    8008.0000
       5                         6                   15015.0000
       6                         4                   16016.0000
       7                         0                       0.0000
       8                         0                       0.0000

 READING LIST ON UNIT   20 WITH FILE NAME: C:\MF_OWHM_Release_Package\MF_OWHM_v1_0\examples\test-run-owhm-lgr\fmp-lgr-nwt\DATA_FMP\OFE.in
 LIST SCALING FACTOR= 0.60000    
 (THE SCALE FACTOR WAS APPLIED TO FIELDS   2 -   7)

 Reading list on unit   30

 Reading list on unit   40

  REF. EVAPOTRANSPIRATION =  9.100000E-04

 READING LIST ON UNIT   50 WITH FILE NAME: C:\MF_OWHM_Release_Package\MF_OWHM_v1_0\examples\test-run-owhm-lgr\fmp-lgr-nwt\DATA_FMP\FTE.in

Transpiratory and Evaporative Fractions of Crop Consumptive Use
    % Transpiration % Evap. for Precip. % Evap. for Irrig.
    1          0.000          1.000          0.500
    2          0.822          0.178          0.158
    3          0.957          0.043          0.043
    4          0.125          0.875          0.875
    5          0.777          0.223          0.000
    6          0.200          0.800          0.000

 READING LIST ON UNIT   60 WITH FILE NAME: C:\MF_OWHM_Release_Package\MF_OWHM_v1_0\examples\test-run-owhm-lgr\fmp-lgr-nwt\DATA_FMP\INEFFSW.in

FRACTIONS OF IN-EFFICIENT LOSSES TO SW-RUNOFF FROM 
     PRECIPITATION:  IRRIGATION:
    1          0.500          0.600
    2          0.400          0.300
    3          0.600          0.500
    4          0.700          0.600
    5          0.840          0.000
    6          0.740          0.000

       PRECIPITATION FLUX =  2.070000E-03

 OPENING FILE WITH FILENAME: ./DATA_FMP/NRDV.in
 AND UNIT NUMBER: -147
 READING SCALE FACTOR LIST ON UNIT   80 ASSOCIATED WITH FILE: C:\MF_OWHM_Release_Package\MF_OWHM_v1_0\examples\test-run-owhm-lgr\fmp-lgr-nwt\DATA_FMP\NRDV.in
 FIELD     SCALE FACTOR
     1       1.0000    
     2       1.0000    
     3       1.0000    
     4       1.0000    

UNRANKED LIST OF NON-ROUTED DELIVERIES TO FARMS [L3]:
TYPE:             1

FARM-ID  VOLUME:
      1   1.500E+04
      2   1.500E+04
      3   2.000E+04
      4   1.000E+04
      5   1.000E+04
      6   2.000E+04
      7   0.000E+00
      8   0.000E+00

FARM-ID  PRIORITY RANK OF NRD-TYPE:
      1           1
      2           1
      3           1
      4           1
      5           1
      6           1
      7           1
      8           1

FARM-ID  USE-FLAG:
         0 = SUFFICIENT USE
         1 = ABSOLUTE USE (RECHARGE SURPLUS BACK INTO CANAL)
         2 = ABSOLUTE USE (INJECT SURPLUS INTO FARM-WELLS)
      1           0
      2           0
      3           0
      4           0
      5           0
      6           0
      7           0
      8           0

LIST OF NON-ROUTED DELIVERIES IN RANKED SEQUENCE [L3/T]:

FARM-ID  RATE:
      1   0.000E+00
      2   0.000E+00
      3   6.575E+02
      4   3.287E+02
      5   3.287E+02
      6   6.575E+02
      7   0.000E+00
      8   0.000E+00

FARM-ID  USE-FLAG:
         0 = SUFFICIENT USE
         1 = ABSOLUTE USE (RECHARGE SURPLUS BACK INTO CANAL)
         2 = ABSOLUTE USE (INJECT SURPLUS INTO FARM-WELLS)
      1           0
      2           0
      3           0
      4           0
      5           0
      6           0
      7           0
      8           0

SURFACE-WATER FARM ALLOTMENT HEIGHT [L]:   0.000
 
 SOLVING FOR HEAD 
                                                   Max.-Head-Change                        Max.-Flux-Residual
  Residual-Control   Outer-Iter.   Inner-Iter.     Column Row Layer    Max.-Head-Change    Column Row Layer    Max.-Flux-Residual            L2-New               L2-Old           Solver-Max-Delh
          0                 1           9            20    9     1      -0.6781992107E+00      17   13    1      -0.2256550636E+03      0.1282720293E+04      0.0000000000E+00     -0.6781992107E+00
          1                 1           0            20    9     1      -0.4747394394E+00      20   13    1       0.2625440317E+03      0.2329336958E+04      0.1282720293E+04     -0.6781992107E+00
          2                 1           0            20    9     1      -0.3323176019E+00       7   17    1       0.2444090112E+03      0.1971488015E+04      0.2329336958E+04     -0.6781992107E+00
          3                 1           0            20    9     1      -0.2326223174E+00       7   17    1       0.2368388028E+03      0.1772960150E+04      0.1971488015E+04     -0.6781992107E+00
          4                 1           0            20    9     1      -0.1628356194E+00       7   17    1       0.2315403542E+03      0.1662371699E+04      0.1772960150E+04     -0.6781992107E+00
          5                 1           0            20    9     1      -0.1139849316E+00       7   17    1       0.2278326169E+03      0.1599254963E+04      0.1662371699E+04     -0.6781992107E+00
          6                 1           0            20    9     1      -0.7978945079E-01       7   17    1       0.2252375565E+03      0.1562333288E+04      0.1599254963E+04     -0.6781992107E+00
          7                 1           0            20    9     1      -0.5585261460E-01       7   17    1       0.2234208932E+03      0.1540187494E+04      0.1562333288E+04     -0.6781992107E+00
          8                 1           0            20    9     1      -0.3909682956E-01       7   17    1       0.2221498777E+03      0.1526499527E+04      0.1540187494E+04     -0.6781992107E+00
          9                 1           0            20    9     1      -0.2736778022E-01       7   17    1       0.2212600774E+03      0.1517790593E+04      0.1526499527E+04     -0.6781992107E+00
                                                   Max.-Head-Change                        Max.-Flux-Residual
  Residual-Control   Outer-Iter.   Inner-Iter.     Column Row Layer    Max.-Head-Change    Column Row Layer    Max.-Flux-Residual            L2-New               L2-Old           Solver-Max-Delh
         10                 1           0            20    9     1      -0.1915744583E-01      13   17    1       0.2208476851E+03      0.1512132184E+04      0.1517790593E+04     -0.6781992107E+00
         11                 1           0            20    9     1      -0.1341021185E-01      13   17    1       0.2206973614E+03      0.1508388732E+04      0.1512132184E+04     -0.6781992107E+00
         12                 1           0            20    9     1      -0.9387148137E-02      13   17    1       0.2205922281E+03      0.1505876237E+04      0.1508388732E+04     -0.6781992107E+00
         13                 1           0            20    9     1      -0.6571003584E-02      13   17    1       0.2205184129E+03      0.1504169961E+04      0.1505876237E+04     -0.6781992107E+00
         14                 1           0            20    9     1      -0.4599702430E-02      13   17    1       0.2204667587E+03      0.1503001720E+04      0.1504169961E+04     -0.6781992107E+00
         15                 1           0            20    9     1      -0.3219791646E-02      13   17    1       0.2204309237E+03      0.1502198004E+04      0.1503001720E+04     -0.6781992107E+00
         16                 1           0            20    9     1      -0.2253854114E-02      13   17    1       0.2204058691E+03      0.1501640384E+04      0.1502198004E+04     -0.6781992107E+00
         17                 1           0            20    9     1      -0.1577697853E-02      13   17    1       0.2203880298E+03      0.1501253713E+04      0.1501640384E+04     -0.6781992107E+00
         18                 1           0            20    9     1      -0.1104388478E-02      13   17    1       0.2203756536E+03      0.1500985356E+04      0.1501253713E+04     -0.6781992107E+00
         19                 1           0            20    9     1      -0.7730719216E-03      13   17    1       0.2203674052E+03      0.1500796256E+04      0.1500985356E+04     -0.6781992107E+00
                                                   Max.-Head-Change                        Max.-Flux-Residual
  Residual-Control   Outer-Iter.   Inner-Iter.     Column Row Layer    Max.-Head-Change    Column Row Layer    Max.-Flux-Residual            L2-New               L2-Old           Solver-Max-Delh
         20                 1           0            20    9     1      -0.5411503359E-03      13   17    1       0.2203610427E+03      0.1500665822E+04      0.1500796256E+04     -0.6781992107E+00
         21                 1           0            20    9     1      -0.3788052287E-03      13   17    1       0.2203566243E+03      0.1500574439E+04      0.1500665822E+04     -0.6781992107E+00
         22                 1           0            20    9     1      -0.2651636556E-03      13   17    1       0.2203536751E+03      0.1500509930E+04      0.1500574439E+04     -0.6781992107E+00
         23                 1           0            20    9     1      -0.1856145557E-03      13   17    1       0.2203515700E+03      0.1500466013E+04      0.1500509930E+04     -0.6781992107E+00
         24                 1           0            20    9     1      -0.1299301868E-03      13   17    1       0.2203502049E+03      0.1500434305E+04      0.1500466013E+04     -0.6781992107E+00
         25                 1           0            20    9     1      -0.9095112922E-04      13   17    1       0.2203491436E+03      0.1500411920E+04      0.1500434305E+04     -0.6781992107E+00
         26                 1           0            20    9     1      -0.6366578937E-04      13   17    1       0.2203482243E+03      0.1500396190E+04      0.1500411920E+04     -0.6781992107E+00
         27                 1           0            20    9     1      -0.4456605180E-04      13   17    1       0.2203479199E+03      0.1500386173E+04      0.1500396190E+04     -0.6781992107E+00
         28                 1           0            20    9     1      -0.3119623573E-04      13   17    1       0.2203473081E+03      0.1500379105E+04      0.1500386173E+04     -0.6781992107E+00
         29                 1           0            20    9     1      -0.2183736464E-04      13   17    1       0.2203471674E+03      0.1500373387E+04      0.1500379105E+04     -0.6781992107E+00
                                                   Max.-Head-Change                        Max.-Flux-Residual
  Residual-Control   Outer-Iter.   Inner-Iter.     Column Row Layer    Max.-Head-Change    Column Row Layer    Max.-Flux-Residual            L2-New               L2-Old           Solver-Max-Delh
         30                 1           0            20    9     1      -0.1528615499E-04      13   17    1       0.2203469956E+03      0.1500369663E+04      0.1500373387E+04     -0.6781992107E+00
         31                 1           0            20    9     1      -0.1070030831E-04      13   17    1       0.2203470463E+03      0.1500367083E+04      0.1500369663E+04     -0.6781992107E+00
         32                 1           0            20    9     1      -0.7490215688E-05      13   17    1       0.2203468376E+03      0.1500365605E+04      0.1500367083E+04     -0.6781992107E+00
         33                 1           0            20    9     1      -0.5243150892E-05      13   17    1       0.2203468624E+03      0.1500364152E+04      0.1500365605E+04     -0.6781992107E+00
         34                 1           0            20    9     1      -0.3670205562E-05      13   17    1       0.2203468798E+03      0.1500363232E+04      0.1500364152E+04     -0.6781992107E+00
         35                 1           0            20    9     1      -0.2569143850E-05      13   17    1       0.2203468920E+03      0.1500362819E+04      0.1500363232E+04     -0.6781992107E+00
         36                 1           0            20    9     1      -0.1798400664E-05      13   17    1       0.2203464122E+03      0.1500362037E+04      0.1500362819E+04     -0.6781992107E+00
         37                 1           0            20    9     1      -0.1258880443E-05      13   17    1       0.2203464181E+03      0.1500361755E+04      0.1500362037E+04     -0.6781992107E+00
         38                 1           0            20    9     1      -0.8812162954E-06      13   17    1       0.2203464223E+03      0.1500361699E+04      0.1500361755E+04     -0.6781992107E+00
         39                 1           0            20    9     1      -0.6168513963E-06      13   17    1       0.2203466694E+03      0.1500361535E+04      0.1500361699E+04     -0.6781992107E+00
                                                   Max.-Head-Change                        Max.-Flux-Residual
  Residual-Control   Outer-Iter.   Inner-Iter.     Column Row Layer    Max.-Head-Change    Column Row Layer    Max.-Flux-Residual            L2-New               L2-Old           Solver-Max-Delh
         40                 1           0            20    9     1      -0.4317959700E-06      13   17    1       0.2203466714E+03      0.1500361426E+04      0.1500361535E+04     -0.6781992107E+00
         41                 1           0            20    9     1      -0.3022571739E-06      13   17    1       0.2203466729E+03      0.1500361238E+04      0.1500361426E+04     -0.6781992107E+00
          0                 2           8             6    8     1       0.2987986833E+00      13   17    1       0.2203466739E+03      0.1500361377E+04      0.1500361238E+04      0.2987986833E+00
          0                 3           7            18    6     1       0.3703517072E-01       2    6    1       0.5651310263E+02      0.1285369518E+03      0.1500361377E+04      0.3703517072E-01
          0                 4           6             2    6     2       0.6835097097E-02       2    6    1       0.1797291545E+02      0.2635194272E+02      0.1285369518E+03      0.6835097097E-02
          0                 5           5             2    6     2       0.1923302256E-02       2    6    1       0.5175702816E+01      0.7621289448E+01      0.2635194272E+02      0.1923302256E-02
          0                 6           4             2    8     3       0.6311676125E-03      18   12    1       0.3323508486E+01      0.3884526889E+01      0.7621289448E+01      0.6311676125E-03
          0                 7           4             2    8     3       0.2212523237E-03      18   12    1       0.3183600649E+01      0.3241168081E+01      0.3884526889E+01      0.2212523237E-03
          0                 8           3            18   12     1       0.1020693761E-03      18   12    1       0.2975257808E+01      0.2982248689E+01      0.3241168081E+01      0.1020693761E-03
          0                 9           3            18   12     1       0.9483359928E-04      18   12    1       0.2767015550E+01      0.2768821692E+01      0.2982248689E+01      0.9483359928E-04

    ------------------------------------------------
       NWT REQUIRED            9 OUTER ITERATIONS 
       AND A TOTAL OF         49 INNER ITERATIONS.
    ------------------------------------------------
                                                   Max.-Head-Change                        Max.-Flux-Residual
  Residual-Control   Outer-Iter.   Inner-Iter.     Column Row Layer    Max.-Head-Change    Column Row Layer    Max.-Flux-Residual            L2-New               L2-Old           Solver-Max-Delh
          0                 1          10             9    9     1      -0.3825043337E+02       9    9    1      -0.4231111231E+05      0.8763837710E+05      0.2768821692E+01     -0.3825043337E+02
          0                 2           9             9    9     1      -0.1499589663E+02       9   10    1      -0.1617981766E+05      0.2344884208E+05      0.8763837710E+05     -0.1499589663E+02
          0                 3           8             9   10     1       0.7963011264E+00      12   12    1      -0.1192773847E+04      0.2006169445E+04      0.2344884208E+05      0.7963011264E+00
          0                 4           6             9   10     1       0.3783784070E-01      12   12    1       0.1045361795E+03      0.1365588295E+03      0.2006169445E+04      0.3783784070E-01
          0                 5           5             9   10     1       0.1894504499E-02      12   12    1       0.5197443154E+01      0.8467771986E+01      0.1365588295E+03      0.1894504499E-02
          0                 6           4             2    6     3       0.4517228954E-03       2    6    1       0.1184809477E+01      0.1528854120E+01      0.8467771986E+01      0.4517228954E-03
          0                 7           3             2    6     3       0.1298824935E-03       2    6    1       0.3376532770E+00      0.4403185280E+00      0.1528854120E+01      0.1298824935E-03
          0                 8           3             2    6     3       0.3794544263E-04       2    6    1       0.9650065540E-01      0.1310144601E+00      0.4403185280E+00      0.3794544263E-04

    ------------------------------------------------
       NWT REQUIRED            8 OUTER ITERATIONS 
       AND A TOTAL OF         48 INNER ITERATIONS.
    ------------------------------------------------
                                                   Max.-Head-Change                        Max.-Flux-Residual
  Residual-Control   Outer-Iter.   Inner-Iter.     Column Row Layer    Max.-Head-Change    Column Row Layer    Max.-Flux-Residual            L2-New               L2-Old           Solver-Max-Delh
          0                 1           9             9    9     1       0.1979001093E+02       9    9    1       0.1468978469E+05      0.1675167567E+05      0.1310144601E+00      0.1979001093E+02
          0                 2           8             9    9     1      -0.2646488809E+01       9    9    1      -0.3406498292E+04      0.3535041301E+04      0.1675167567E+05     -0.2646488809E+01
          0                 3           6             9    9     1      -0.1497865020E+00       9    9    1      -0.1984008375E+03      0.2067130027E+03      0.3535041301E+04     -0.1497865020E+00
          0                 4           5             9    9     1      -0.7543958657E-02       9    9    1      -0.9999604100E+01      0.1057798902E+02      0.2067130027E+03     -0.7543958657E-02
          0                 5           3             9    9     1      -0.3793216072E-03       9    9    1      -0.5003650073E+00      0.7745456409E+00      0.1057798902E+02     -0.3793216072E-03
          0                 6           3             2    8     3      -0.4903314446E-04       2    8    1      -0.1147808017E+00      0.1787721897E+00      0.7745456409E+00     -0.4903314446E-04

    ------------------------------------------------
       NWT REQUIRED            6 OUTER ITERATIONS 
       AND A TOTAL OF         34 INNER ITERATIONS.
    ------------------------------------------------
                                                   Max.-Head-Change                        Max.-Flux-Residual
  Residual-Control   Outer-Iter.   Inner-Iter.     Column Row Layer    Max.-Head-Change    Column Row Layer    Max.-Flux-Residual            L2-New               L2-Old           Solver-Max-Delh
          0                 1           9             9    9     1       0.8882863634E+01       9    9    1       0.6930865629E+04      0.9027304212E+04      0.1787721897E+00      0.8882863634E+01
          0                 2           8             9    9     1      -0.9640214068E+00       9    9    1      -0.1096824463E+04      0.1243580334E+04      0.9027304212E+04     -0.9640214068E+00
          0                 3           6             9    9     1      -0.5109821487E-01       9    9    1      -0.5939993186E+02      0.6664493680E+02      0.1243580334E+04     -0.5109821487E-01
          0                 4           4             9    9     1      -0.2569262782E-02       9    9    1      -0.2982539978E+01      0.3844637442E+01      0.6664493680E+02     -0.2569262782E-02
          0                 5           3             2    8     3      -0.1490424886E-03       2    8    1      -0.3489438399E+00      0.5798203392E+00      0.3844637442E+01     -0.1490424886E-03
          0                 6           3             2    8     3      -0.4647590272E-04       2    8    1      -0.1080910320E+00      0.1680834284E+00      0.5798203392E+00     -0.4647590272E-04

    ------------------------------------------------
       NWT REQUIRED            6 OUTER ITERATIONS 
       AND A TOTAL OF         33 INNER ITERATIONS.
    ------------------------------------------------
                                                   Max.-Head-Change                        Max.-Flux-Residual
  Residual-Control   Outer-Iter.   Inner-Iter.     Column Row Layer    Max.-Head-Change    Column Row Layer    Max.-Flux-Residual            L2-New               L2-Old           Solver-Max-Delh
          0                 1           8             9    9     1       0.2874311411E+01       9    9    1       0.2204313554E+04      0.3966485849E+04      0.1680834284E+00      0.2874311411E+01
          0                 2           7             9    9     1      -0.2693137687E+00       9    9    1      -0.2621181233E+03      0.4319002678E+03      0.3966485849E+04     -0.2693137687E+00
          0                 3           6             9    9     1      -0.1372308383E-01       9    9    1      -0.1347526749E+02      0.2212764470E+02      0.4319002678E+03     -0.1372308383E-01
          0                 4           4             9    9     1      -0.6889935210E-03       2    8    1      -0.7221173275E+00      0.1574096549E+01      0.2212764470E+02     -0.6889935210E-03
          0                 5           3             2    8     3      -0.9765652247E-04       2    8    1      -0.2294022181E+00      0.3587840795E+00      0.1574096549E+01     -0.9765652247E-04

    ------------------------------------------------
       NWT REQUIRED            5 OUTER ITERATIONS 
       AND A TOTAL OF         28 INNER ITERATIONS.
    ------------------------------------------------
                                                   Max.-Head-Change                        Max.-Flux-Residual
  Residual-Control   Outer-Iter.   Inner-Iter.     Column Row Layer    Max.-Head-Change    Column Row Layer    Max.-Flux-Residual            L2-New               L2-Old           Solver-Max-Delh
          0                 1           8             9    5     1       0.6987422900E+00       9    5    1       0.5252139921E+03      0.1667443679E+04      0.3587840795E+00      0.6987422900E+00
          0                 2           7             9    5     1      -0.6148540061E-01       9    5    1      -0.5470399720E+02      0.1712132616E+03      0.1667443679E+04     -0.6148540061E-01
          0                 3           5             9    5     1      -0.3088546919E-02       9    5    1      -0.2752208442E+01      0.8757174139E+01      0.1712132616E+03     -0.3088546919E-02
          0                 4           4             2    8     3      -0.1698016914E-03       2    6    1      -0.3933142301E+00      0.7473539911E+00      0.8757174139E+01     -0.1698016914E-03
          0                 5           3             2    8     3      -0.5255254352E-04       2    8    1      -0.1232216144E+00      0.1917704315E+00      0.7473539911E+00     -0.5255254352E-04

    ------------------------------------------------
       NWT REQUIRED            5 OUTER ITERATIONS 
       AND A TOTAL OF         27 INNER ITERATIONS.
    ------------------------------------------------
                                                   Max.-Head-Change                        Max.-Flux-Residual
  Residual-Control   Outer-Iter.   Inner-Iter.     Column Row Layer    Max.-Head-Change    Column Row Layer    Max.-Flux-Residual            L2-New               L2-Old           Solver-Max-Delh
          0                 1           8             9    9     1      -0.4017101961E+00       9    9    1      -0.4521504986E+03      0.8839563738E+03      0.1917704315E+00     -0.4017101961E+00
          0                 2           6             9    9     1       0.3443462121E-01       9    9    1       0.4454848810E+02      0.8876336331E+02      0.8839563738E+03      0.3443462121E-01
          0                 3           5             9    9     1       0.1716647594E-02       9    9    1       0.2222327312E+01      0.4508768885E+01      0.8876336331E+02      0.1716647594E-02
          0                 4           3             9    9     1       0.8554373556E-04       2    6    1      -0.1922178688E+00      0.3623909840E+00      0.4508768885E+01      0.8554373556E-04

    ------------------------------------------------
       NWT REQUIRED            4 OUTER ITERATIONS 
       AND A TOTAL OF         22 INNER ITERATIONS.
    ------------------------------------------------
                                                   Max.-Head-Change                        Max.-Flux-Residual
  Residual-Control   Outer-Iter.   Inner-Iter.     Column Row Layer    Max.-Head-Change    Column Row Layer    Max.-Flux-Residual            L2-New               L2-Old           Solver-Max-Delh
          0                 1           7             9    9     1      -0.3346507911E+00       9    9    1      -0.3488883951E+03      0.4630157764E+03      0.3623909840E+00     -0.3346507911E+00
          0                 2           6             9    9     1       0.2868086557E-01       9    9    1       0.3436472368E+02      0.4602220182E+02      0.4630157764E+03      0.2868086557E-01
          0                 3           4             9    9     1       0.1430199273E-02       9    9    1       0.1713647149E+01      0.2318067111E+01      0.4602220182E+02      0.1430199273E-02
          0                 4           3             9    9     1       0.7036061107E-04       9    9    1       0.8475808494E-01      0.1610018968E+00      0.2318067111E+01      0.7036061107E-04

    ------------------------------------------------
       NWT REQUIRED            4 OUTER ITERATIONS 
       AND A TOTAL OF         20 INNER ITERATIONS.
    ------------------------------------------------
                                                   Max.-Head-Change                        Max.-Flux-Residual
  Residual-Control   Outer-Iter.   Inner-Iter.     Column Row Layer    Max.-Head-Change    Column Row Layer    Max.-Flux-Residual            L2-New               L2-Old           Solver-Max-Delh
          0                 1           6             9    9     1      -0.1473662989E+00       9    9    1      -0.1590457636E+03      0.1960344750E+03      0.1610018968E+00     -0.1473662989E+00
          0                 2           5             9    9     1       0.1268700274E-01       9    9    1       0.1580499161E+02      0.1955747079E+02      0.1960344750E+03      0.1268700274E-01
          0                 3           4             9    9     1       0.6336833329E-03       9    9    1       0.7893610887E+00      0.9815509843E+00      0.1955747079E+02      0.6336833329E-03
          0                 4           2             9    9     1       0.3164328613E-04       9    9    1       0.3988549588E-01      0.6177638404E-01      0.9815509843E+00      0.3164328613E-04

    ------------------------------------------------
       NWT REQUIRED            4 OUTER ITERATIONS 
       AND A TOTAL OF         17 INNER ITERATIONS.
    ------------------------------------------------
                                                   Max.-Head-Change                        Max.-Flux-Residual
  Residual-Control   Outer-Iter.   Inner-Iter.     Column Row Layer    Max.-Head-Change    Column Row Layer    Max.-Flux-Residual            L2-New               L2-Old           Solver-Max-Delh
          0                 1           6             9    9     1      -0.3251134298E-01       9    9    1      -0.4367580521E+02      0.7565150858E+02      0.6177638404E-01     -0.3251134298E-01
          0                 2           5             9    9     1       0.2807760291E-02       9    9    1       0.4364391209E+01      0.7580874896E+01      0.7565150858E+02      0.2807760291E-02
          0                 3           3             9    9     1       0.1406244342E-03       9    9    1       0.2184323436E+00      0.3793631350E+00      0.7580874896E+01      0.1406244342E-03
          0                 4           2             9    9     1       0.7559806630E-05       9    9    1       0.1150656168E-01      0.2234946863E-01      0.3793631350E+00      0.7559806630E-05

    ------------------------------------------------
       NWT REQUIRED            4 OUTER ITERATIONS 
       AND A TOTAL OF         16 INNER ITERATIONS.
    ------------------------------------------------
                                                   Max.-Head-Change                        Max.-Flux-Residual
  Residual-Control   Outer-Iter.   Inner-Iter.     Column Row Layer    Max.-Head-Change    Column Row Layer    Max.-Flux-Residual            L2-New               L2-Old           Solver-Max-Delh
          0                 1           6             9    9     3       0.2275803490E-01       9    5    1      -0.1619292606E+02      0.4195507011E+02      0.2234946863E-01      0.2275803490E-01
          0                 2           5             9    9     3      -0.1965446128E-02       9    5    1       0.1616878982E+01      0.4201408263E+01      0.4195507011E+02     -0.1965446128E-02
          0                 3           3             9    9     3      -0.9815215568E-04       9    5    1       0.8049718372E-01      0.2112405956E+00      0.4201408263E+01     -0.9815215568E-04

    ------------------------------------------------
       NWT REQUIRED            3 OUTER ITERATIONS 
       AND A TOTAL OF         14 INNER ITERATIONS.
    ------------------------------------------------
                                                   Max.-Head-Change                        Max.-Flux-Residual
  Residual-Control   Outer-Iter.   Inner-Iter.     Column Row Layer    Max.-Head-Change    Column Row Layer    Max.-Flux-Residual            L2-New               L2-Old           Solver-Max-Delh
          0                 1           6             9    9     2       0.1556620944E-01      12    8    1      -0.8785357423E+01      0.2588753649E+02      0.2112405956E+00      0.1556620944E-01
          0                 2           4             9    9     2      -0.1344227930E-02      12    8    1       0.8780983426E+00      0.2590407863E+01      0.2588753649E+02     -0.1344227930E-02
          0                 3           3             9    9     2      -0.6739919017E-04       9    5    1       0.4459618591E-01      0.1314838223E+00      0.2590407863E+01     -0.6739919017E-04

    ------------------------------------------------
       NWT REQUIRED            3 OUTER ITERATIONS 
       AND A TOTAL OF         13 INNER ITERATIONS.
    ------------------------------------------------
                                                   Max.-Head-Change                        Max.-Flux-Residual
  Residual-Control   Outer-Iter.   Inner-Iter.     Column Row Layer    Max.-Head-Change    Column Row Layer    Max.-Flux-Residual            L2-New               L2-Old           Solver-Max-Delh
          0                 1           5             9    9     2       0.6423214657E-02       9    9    1       0.4983101617E+01      0.1312208863E+02      0.1314838223E+00      0.6423214657E-02
          0                 2           4             9    9     2      -0.5543611878E-03       9    9    1      -0.4976273370E+00      0.1312672174E+01      0.1312208863E+02     -0.5543611878E-03
          0                 3           2             9    9     2      -0.2781552194E-04       9    9    1      -0.2507523057E-01      0.6668820070E-01      0.1312672174E+01     -0.2781552194E-04

    ------------------------------------------------
       NWT REQUIRED            3 OUTER ITERATIONS 
       AND A TOTAL OF         11 INNER ITERATIONS.
    ------------------------------------------------
                                                   Max.-Head-Change                        Max.-Flux-Residual
  Residual-Control   Outer-Iter.   Inner-Iter.     Column Row Layer    Max.-Head-Change    Column Row Layer    Max.-Flux-Residual            L2-New               L2-Old           Solver-Max-Delh
          0                 1           5             9    9     3      -0.2956625502E-02       6    7    1      -0.2002866435E+01      0.5462047000E+01      0.6668820070E-01     -0.2956625502E-02
          0                 2           4             9    9     3       0.2551831202E-03       6    7    1       0.2001584368E+00      0.5465417755E+00      0.5462047000E+01      0.2551831202E-03
          0                 3           2             9    9     3       0.1264463656E-04       6    7    1       0.1044482723E-01      0.3014311013E-01      0.5465417755E+00      0.1264463656E-04

    ------------------------------------------------
       NWT REQUIRED            3 OUTER ITERATIONS 
       AND A TOTAL OF         11 INNER ITERATIONS.
    ------------------------------------------------
                                                   Max.-Head-Change                        Max.-Flux-Residual
  Residual-Control   Outer-Iter.   Inner-Iter.     Column Row Layer    Max.-Head-Change    Column Row Layer    Max.-Flux-Residual            L2-New               L2-Old           Solver-Max-Delh
          0                 1           4             9    9     3      -0.2366032648E-02      11   11    1      -0.8072582121E+00      0.2176617872E+01      0.3014311013E-01     -0.2366032648E-02
          0                 2           3             9    9     3       0.2043034143E-03      11   11    1       0.8091646968E-01      0.2180513072E+00      0.2176617872E+01      0.2043034143E-03
          0                 3           1             9    9     3       0.9080582572E-05       7    9    1       0.4095310462E-02      0.1432376490E-01      0.2180513072E+00      0.9080582572E-05

    ------------------------------------------------
       NWT REQUIRED            3 OUTER ITERATIONS 
       AND A TOTAL OF          8 INNER ITERATIONS.
    ------------------------------------------------
                                                   Max.-Head-Change                        Max.-Flux-Residual
  Residual-Control   Outer-Iter.   Inner-Iter.     Column Row Layer    Max.-Head-Change    Column Row Layer    Max.-Flux-Residual            L2-New               L2-Old           Solver-Max-Delh
          0                 1           4             9    9     2      -0.1171315854E-02       7    9    1      -0.5091940115E+00      0.1080598217E+01      0.1432376490E-01     -0.1171315854E-02
          0                 2           3             9    9     2       0.1014014909E-03       7    9    1       0.5015778547E-01      0.1078876171E+00      0.1080598217E+01      0.1014014909E-03
          0                 3           1             9    9     2       0.4543272672E-05       7    9    1       0.3398347297E-02      0.9816285982E-02      0.1078876171E+00      0.4543272672E-05

    ------------------------------------------------
       NWT REQUIRED            3 OUTER ITERATIONS 
       AND A TOTAL OF          8 INNER ITERATIONS.
    ------------------------------------------------
                                                   Max.-Head-Change                        Max.-Flux-Residual
  Residual-Control   Outer-Iter.   Inner-Iter.     Column Row Layer    Max.-Head-Change    Column Row Layer    Max.-Flux-Residual            L2-New               L2-Old           Solver-Max-Delh
          0                 1           4             9    9     2      -0.5887567333E-03       7    9    1      -0.2689927602E+00      0.6123582182E+00      0.9816285982E-02     -0.5887567333E-03
          0                 2           2             9    9     2       0.5083660653E-04       7    9    1       0.2646621631E-01      0.6233313061E-01      0.6123582182E+00      0.5083660653E-04

    ------------------------------------------------
       NWT REQUIRED            2 OUTER ITERATIONS 
       AND A TOTAL OF          6 INNER ITERATIONS.
    ------------------------------------------------

 OUTPUT CONTROL FOR STRESS PERIOD      1   TIME STEP     1
    PRINT BUDGET
    SAVE BUDGET
 UBDSV1 SAVING "         STORAGE" ON UNIT  70 AT TIME STEP    1, STRESS PERIOD   1
 UBDSV2 SAVING "   CONSTANT HEAD" ON UNIT  70 AT TIME STEP    1, STRESS PERIOD   1
 UBDSV1 SAVING "FLOW RIGHT FACE " ON UNIT  70 AT TIME STEP    1, STRESS PERIOD   1
 UBDSV1 SAVING "FLOW FRONT FACE " ON UNIT  70 AT TIME STEP    1, STRESS PERIOD   1
 UBDSV1 SAVING "FLOW LOWER FACE " ON UNIT  70 AT TIME STEP    1, STRESS PERIOD   1
 UBDSV4 SAVING " HEAD DEP BOUNDS" ON UNIT  70 AT TIME STEP    1, STRESS PERIOD   1
 UBDSV4 SAVING "  STREAM LEAKAGE" ON UNIT  70 AT TIME STEP    1, STRESS PERIOD   1



 UBDSV4 SAVING "             MNW" ON UNIT  70 AT TIME STEP    1, STRESS PERIOD   1
 
 
 
 
 
 
 
 
 UBDSV3 SAVING "FARM  NET  RECH." ON UNIT  70 AT TIME STEP    1, STRESS PERIOD   1
 UBDSV4 SAVING " GHOST-NODE FLUX" ON UNIT  70 AT TIME STEP    1, STRESS PERIOD   1
 UBDSV4 SAVING " GHOST-NODE FLUX" ON UNIT  70 AT TIME STEP    1, STRESS PERIOD   1
 UBDSV4 SAVING " GHOST-NODE FLUX" ON UNIT  70 AT TIME STEP    1, STRESS PERIOD   1
1
  VOLUMETRIC BUDGET FOR ENTIRE MODEL AT END OF TIME STEP    1 IN STRESS PERIOD      1
  ------------------------------------------------------------------------------

     CUMULATIVE VOLUMES      L**3       RATES FOR THIS TIME STEP      L**3/T
     ------------------                 ------------------------

           IN:                                      IN:
           ---                                      ---
             STORAGE =     4757951.5000               STORAGE =      312817.3125
       CONSTANT HEAD =           0.0000         CONSTANT HEAD =           0.0000
     HEAD DEP BOUNDS =       62620.8398       HEAD DEP BOUNDS =        4117.0835
      STREAM LEAKAGE =      286591.0000        STREAM LEAKAGE =       18842.2754
                 MNW =        2516.9751                   MNW =         165.4816
          FARM WELLS =           0.0000            FARM WELLS =           0.0000
    FARM  NET  RECH. =      506751.6250      FARM  NET  RECH. =       33317.0039
     GHOST-NODE FLUX =         270.6493       GHOST-NODE FLUX =          17.7942

            TOTAL IN =     5616702.5000              TOTAL IN =      369276.9375

          OUT:                                     OUT:
          ----                                     ----
             STORAGE =           0.0000               STORAGE =           0.0000
       CONSTANT HEAD =           0.0000         CONSTANT HEAD =           0.0000
     HEAD DEP BOUNDS =      290207.1562       HEAD DEP BOUNDS =       19080.0234
      STREAM LEAKAGE =       57733.0859        STREAM LEAKAGE =        3795.7322
                 MNW =        2516.9751                   MNW =         165.4816
          FARM WELLS =           0.0000            FARM WELLS =           0.0000
    FARM  NET  RECH. =        4305.2085      FARM  NET  RECH. =         283.0512
     GHOST-NODE FLUX =     5261940.0000       GHOST-NODE FLUX =      345952.6562

           TOTAL OUT =     5616702.5000             TOTAL OUT =      369276.9375

            IN - OUT =           0.0000              IN - OUT =           0.0000

 PERCENT DISCREPANCY =           0.00     PERCENT DISCREPANCY =           0.00






          TIME SUMMARY AT END OF TIME STEP     1 IN STRESS PERIOD      1
                    SECONDS     MINUTES      HOURS       DAYS        YEARS
                    -----------------------------------------------------------
   TIME STEP LENGTH 1.31414E+06  21902.      365.04      15.210     4.16427E-02
 STRESS PERIOD TIME 1.31414E+06  21902.      365.04      15.210     4.16427E-02
         TOTAL TIME 1.31414E+06  21902.      365.04      15.210     4.16427E-02
1
 
 SOLVING FOR HEAD 
                                                   Max.-Head-Change                        Max.-Flux-Residual
  Residual-Control   Outer-Iter.   Inner-Iter.     Column Row Layer    Max.-Head-Change    Column Row Layer    Max.-Flux-Residual            L2-New               L2-Old           Solver-Max-Delh
          0                 1          10             9    9     1      -0.1690645848E+02       9    9    1      -0.8632361240E+04      0.2846322532E+05      0.6233313061E-01     -0.1690645848E+02
          0                 2           8             8    9     1       0.8102799369E+00      12   13    1      -0.1392455673E+04      0.2867884661E+04      0.2846322532E+05      0.8102799369E+00
          0                 3           7             8    9     1       0.3903163028E-01      12   13    1       0.1120209525E+03      0.2251759157E+03      0.2867884661E+04      0.3903163028E-01
          0                 4           6             2    8     3       0.1178887598E-01       2    8    1       0.2656727709E+02      0.4383682581E+02      0.2251759157E+03      0.1178887598E-01
          0                 5           5             2    8     3       0.3668232485E-02       2    8    1       0.8423179277E+01      0.1328429466E+02      0.4383682581E+02      0.3668232485E-02
          0                 6           4             2    8     3       0.1130762631E-02       2    8    1       0.2614642857E+01      0.4058653570E+01      0.1328429466E+02      0.1130762631E-02
          0                 7           4             2    8     3       0.3478188721E-03       2    8    1       0.8068094944E+00      0.1239061672E+01      0.4058653570E+01      0.3478188721E-03
          0                 8           3             2    8     3       0.1064674751E-03       2    8    1       0.2486821569E+00      0.3783883294E+00      0.1239061672E+01      0.1064674751E-03
          0                 9           2             2    8     3       0.3220063822E-04       2    8    1       0.7559295918E-01      0.1158220664E+00      0.3783883294E+00      0.3220063822E-04

    ------------------------------------------------
       NWT REQUIRED            9 OUTER ITERATIONS 
       AND A TOTAL OF         49 INNER ITERATIONS.
    ------------------------------------------------
                                                   Max.-Head-Change                        Max.-Flux-Residual
  Residual-Control   Outer-Iter.   Inner-Iter.     Column Row Layer    Max.-Head-Change    Column Row Layer    Max.-Flux-Residual            L2-New               L2-Old           Solver-Max-Delh
          0                 1           9             9    9     1       0.1816178661E+02       9    9    1       0.1121689670E+05      0.2584968727E+05      0.1158220664E+00      0.1816178661E+02
          0                 2           8             9    9     1      -0.2436036499E+01       9    9    1      -0.2782470807E+04      0.4039100129E+04      0.2584968727E+05     -0.2436036499E+01
          0                 3           6             9    9     1      -0.1407614958E+00       9    9    1      -0.1686383396E+03      0.2284018582E+03      0.4039100129E+04     -0.1407614958E+00
          0                 4           5             9    9     1      -0.7112485264E-02       9    9    1      -0.8523903717E+01      0.1460990331E+02      0.2284018582E+03     -0.7112485264E-02
          0                 5           4             2    8     3      -0.5806295325E-03      20    7    1       0.5825764000E+01      0.6212118002E+01      0.1460990331E+02     -0.5806295325E-03
          0                 6           4            20    7     1       0.2367393622E-03      20    7    1       0.5489203646E+01      0.5526564495E+01      0.6212118002E+01      0.2367393622E-03
          0                 7           3            20    7     1       0.2231313854E-03      20    7    1       0.5171442917E+01      0.5175496151E+01      0.5526564495E+01      0.2231313854E-03
          0                 8           4            20    7     1       0.3829827009E-02      20    7    1       0.4874963595E+01      0.4875676506E+01      0.5175496151E+01      0.3829827009E-02
          0                 9           4            20    8     1       0.3342888408E-03      20    7    1      -0.8800065373E+00      0.1284909909E+01      0.4875676506E+01      0.3342888408E-03
          0                10           3            20    8     1       0.6753299618E-04      20    8    1       0.1103580747E+00      0.1931394436E+00      0.1284909909E+01      0.6753299618E-04

    ------------------------------------------------
       NWT REQUIRED           10 OUTER ITERATIONS 
       AND A TOTAL OF         50 INNER ITERATIONS.
    ------------------------------------------------
                                                   Max.-Head-Change                        Max.-Flux-Residual
  Residual-Control   Outer-Iter.   Inner-Iter.     Column Row Layer    Max.-Head-Change    Column Row Layer    Max.-Flux-Residual            L2-New               L2-Old           Solver-Max-Delh
          0                 1           9             9    9     1       0.6701558102E+01       9    9    1       0.4442919409E+04      0.1196887516E+05      0.1931394436E+00      0.6701558102E+01
          0                 2           8             9    9     1      -0.6946597757E+00       9    9    1      -0.6556415080E+03      0.1410372257E+04      0.1196887516E+05     -0.6946597757E+00
          0                 3           6             9    9     1      -0.3642719386E-01       9    9    1      -0.3519590517E+02      0.7331903300E+02      0.1410372257E+04     -0.3642719386E-01
          0                 4           5             9    9     1      -0.1834364474E-02       2    8    1      -0.2307615262E+01      0.5123658185E+01      0.7331903300E+02     -0.1834364474E-02
          0                 5           4             2    8     3      -0.3146251831E-03       2    8    1      -0.7306573779E+00      0.1146805840E+01      0.5123658185E+01     -0.3146251831E-03
          0                 6           3             2    8     3      -0.9674576556E-04       2    8    1      -0.2261987716E+00      0.3566273886E+00      0.1146805840E+01     -0.9674576556E-04

    ------------------------------------------------
       NWT REQUIRED            6 OUTER ITERATIONS 
       AND A TOTAL OF         35 INNER ITERATIONS.
    ------------------------------------------------
                                                   Max.-Head-Change                        Max.-Flux-Residual
  Residual-Control   Outer-Iter.   Inner-Iter.     Column Row Layer    Max.-Head-Change    Column Row Layer    Max.-Flux-Residual            L2-New               L2-Old           Solver-Max-Delh
          0                 1           8             9    5     1       0.1423847686E+01      10   11    1       0.1040260165E+04      0.4735257151E+04      0.3566273886E+00      0.1423847686E+01
          0                 2           7             9    5     1      -0.1273723922E+00      10   11    1      -0.1102179348E+03      0.5061703741E+03      0.4735257151E+04     -0.1273723922E+00
          0                 3           6             9    5     1      -0.6422666200E-02      19   10    1       0.1979867145E+02      0.3260038240E+02      0.5061703741E+03     -0.6422666200E-02
          0                 4           4            19   10     1       0.7378215723E-03      19   10    1       0.1821568279E+02      0.1833715127E+02      0.3260038240E+02      0.7378215723E-03
          0                 5           4            19   10     1       0.6796307247E-03      19   10    1       0.1675364471E+02      0.1676845755E+02      0.1833715127E+02      0.6796307247E-03
          0                 6           4            19   10     1       0.6268791684E-03      19   10    1       0.1543499476E+02      0.1544262113E+02      0.1676845755E+02      0.6268791684E-03
          0                 7           4            19   10     1       0.5788422469E-03      19   10    1       0.1423786506E+02      0.1424429026E+02      0.1544262113E+02      0.5788422469E-03
          0                 8           4            19   10     1       0.5350548568E-03      19   10    1       0.1314810194E+02      0.1315397972E+02      0.1424429026E+02      0.5350548568E-03
          0                 9           4            19   10     1       0.4950761212E-03      19   10    1       0.1215446916E+02      0.1215990615E+02      0.1315397972E+02      0.4950761212E-03
          0                10           3            19   10     1       0.4584784488E-03      19   10    1       0.1124704427E+02      0.1125206858E+02      0.1215990615E+02      0.4584784488E-03
                                                   Max.-Head-Change                        Max.-Flux-Residual
  Residual-Control   Outer-Iter.   Inner-Iter.     Column Row Layer    Max.-Head-Change    Column Row Layer    Max.-Flux-Residual            L2-New               L2-Old           Solver-Max-Delh
          0                11           3            19   10     1       0.4249398461E-03      19   10    1       0.1041615593E+02      0.1042083025E+02      0.1125206858E+02      0.4249398461E-03
          0                12           3            19   10     1       0.3941563831E-03      19   10    1       0.9654999767E+01      0.9659327542E+01      0.1042083025E+02      0.3941563831E-03
          0                13           5            19   10     1       0.5461432068E-02      19   10    1       0.8957389450E+01      0.8961398410E+01      0.9659327542E+01      0.5461432068E-02
          0                14           4            19   10     2       0.3823202406E-03      19   10    1      -0.8811679798E+00      0.1630826165E+01      0.8961398410E+01      0.3823202406E-03
          0                15           3            19   10     2       0.6919094333E-04      18    9    1       0.1359932644E+00      0.2525260397E+00      0.1630826165E+01      0.6919094333E-04

    ------------------------------------------------
       NWT REQUIRED           15 OUTER ITERATIONS 
       AND A TOTAL OF         66 INNER ITERATIONS.
    ------------------------------------------------
                                                   Max.-Head-Change                        Max.-Flux-Residual
  Residual-Control   Outer-Iter.   Inner-Iter.     Column Row Layer    Max.-Head-Change    Column Row Layer    Max.-Flux-Residual            L2-New               L2-Old           Solver-Max-Delh
          0                 1           8             9    9     2      -0.7441308364E+00       9    9    1      -0.8663132515E+03      0.1967460389E+04      0.2525260397E+00     -0.7441308364E+00
          0                 2           7             9    9     2       0.6419835035E-01       9    9    1       0.8571592837E+02      0.1991297007E+03      0.1967460389E+04      0.6419835035E-01
          0                 3           5             9    9     2       0.3203354115E-02       9    9    1       0.4278544566E+01      0.1009197497E+02      0.1991297007E+03      0.3203354115E-02
          0                 4           4             9    9     2       0.1582727448E-03       2    6    1      -0.3614061846E+00      0.7492102295E+00      0.1009197497E+02      0.1582727448E-03
          0                 5           3             2    8     3      -0.4788939789E-04       2    8    1      -0.1115733312E+00      0.1916857233E+00      0.7492102295E+00     -0.4788939789E-04

    ------------------------------------------------
       NWT REQUIRED            5 OUTER ITERATIONS 
       AND A TOTAL OF         27 INNER ITERATIONS.
    ------------------------------------------------
                                                   Max.-Head-Change                        Max.-Flux-Residual
  Residual-Control   Outer-Iter.   Inner-Iter.     Column Row Layer    Max.-Head-Change    Column Row Layer    Max.-Flux-Residual            L2-New               L2-Old           Solver-Max-Delh
          0                 1           7             9    9     1      -0.7415270778E+00       9    9    1      -0.7955400098E+03      0.1009942614E+04      0.1916857233E+00     -0.7415270778E+00
          0                 2           6             9    9     1       0.6291305436E-01       9    9    1       0.7693701132E+02      0.9924420166E+02      0.1009942614E+04      0.6291305436E-01
          0                 3           5             9    9     1       0.3133660206E-02       9    9    1       0.3827650115E+01      0.5163499604E+01      0.9924420166E+02      0.3133660206E-02
          0                 4           3             9    9     1       0.1566226681E-03      19    9    1       0.1323565021E+01      0.1352073170E+01      0.5163499604E+01      0.1566226681E-03
          0                 5           2            19    9     1       0.4953717701E-04      19    9    1       0.1218627679E+01      0.1219789092E+01      0.1352073170E+01      0.4953717701E-04

    ------------------------------------------------
       NWT REQUIRED            5 OUTER ITERATIONS 
       AND A TOTAL OF         23 INNER ITERATIONS.
    ------------------------------------------------
                                                   Max.-Head-Change                        Max.-Flux-Residual
  Residual-Control   Outer-Iter.   Inner-Iter.     Column Row Layer    Max.-Head-Change    Column Row Layer    Max.-Flux-Residual            L2-New               L2-Old           Solver-Max-Delh
          0                 1           7             9    9     1      -0.4018692379E+00       9    9    1      -0.4079134854E+03      0.5147701369E+03      0.1219789092E+01     -0.4018692379E+00
          0                 2           6             9    9     1       0.3434645638E-01       9    9    1       0.3999297341E+02      0.5086795058E+02      0.5147701369E+03      0.3434645638E-01
          0                 3           4             9    9     1       0.1714196973E-02       9    9    1       0.1993948193E+01      0.2548757131E+01      0.5086795058E+02      0.1714196973E-02
          0                 4           3             9    9     1       0.8563531087E-04      19    9    1       0.1864018644E+00      0.2277842808E+00      0.2548757131E+01      0.8563531087E-04

    ------------------------------------------------
       NWT REQUIRED            4 OUTER ITERATIONS 
       AND A TOTAL OF         20 INNER ITERATIONS.
    ------------------------------------------------
                                                   Max.-Head-Change                        Max.-Flux-Residual
  Residual-Control   Outer-Iter.   Inner-Iter.     Column Row Layer    Max.-Head-Change    Column Row Layer    Max.-Flux-Residual            L2-New               L2-Old           Solver-Max-Delh
          0                 1           7             9    9     1      -0.1285703774E+00       9    9    1      -0.1263764004E+03      0.2585844086E+03      0.2277842808E+00     -0.1285703774E+00
          0                 2           5             9    9     1       0.1106567722E-01       9    9    1       0.1255775294E+02      0.2578588624E+02      0.2585844086E+03      0.1106567722E-01
          0                 3           4             9    9     1       0.5534261976E-03      19    9    1      -0.9175189389E+00      0.1589473176E+01      0.2578588624E+02      0.5534261976E-03
          0                 4           3            19    9     1      -0.3435438428E-04      19    9    1      -0.8452941193E+00      0.8500695796E+00      0.1589473176E+01     -0.3435438428E-04

    ------------------------------------------------
       NWT REQUIRED            4 OUTER ITERATIONS 
       AND A TOTAL OF         19 INNER ITERATIONS.
    ------------------------------------------------
                                                   Max.-Head-Change                        Max.-Flux-Residual
  Residual-Control   Outer-Iter.   Inner-Iter.     Column Row Layer    Max.-Head-Change    Column Row Layer    Max.-Flux-Residual            L2-New               L2-Old           Solver-Max-Delh
          0                 1           6            12    8     1      -0.6051274538E-01       6    7    1      -0.4930791320E+02      0.1487024708E+03      0.8500695796E+00     -0.6051274538E-01
          0                 2           5            12    8     1       0.5215511633E-02       6    7    1       0.4917537750E+01      0.1492601212E+02      0.1487024708E+03      0.5215511633E-02
          0                 3           4            12    8     1       0.2605969791E-03      19    9    1      -0.1447763711E+01      0.1632257320E+01      0.1492601212E+02      0.2605969791E-03
          0                 4           3            19    9     1      -0.5411476560E-04      19    9    1      -0.1333038118E+01      0.1334915236E+01      0.1632257320E+01     -0.5411476560E-04

    ------------------------------------------------
       NWT REQUIRED            4 OUTER ITERATIONS 
       AND A TOTAL OF         18 INNER ITERATIONS.
    ------------------------------------------------
                                                   Max.-Head-Change                        Max.-Flux-Residual
  Residual-Control   Outer-Iter.   Inner-Iter.     Column Row Layer    Max.-Head-Change    Column Row Layer    Max.-Flux-Residual            L2-New               L2-Old           Solver-Max-Delh
          0                 1           6             9    9     2       0.3344643023E-01       6    7    1      -0.2744621106E+02      0.8798608702E+02      0.1334915236E+01      0.3344643023E-01
          0                 2           5             9    9     2      -0.2889226459E-02       6    7    1       0.2740269358E+01      0.8940056858E+01      0.8798608702E+02     -0.2889226459E-02
          0                 3           4             9    9     2      -0.1439915794E-03      19    9    1      -0.1486968385E+01      0.1553011345E+01      0.8940056858E+01     -0.1439915794E-03
          0                 4           2            19    9     1      -0.5547527101E-04      19    9    1      -0.1371813007E+01      0.1372829332E+01      0.1553011345E+01     -0.5547527101E-04

    ------------------------------------------------
       NWT REQUIRED            4 OUTER ITERATIONS 
       AND A TOTAL OF         17 INNER ITERATIONS.
    ------------------------------------------------
                                                   Max.-Head-Change                        Max.-Flux-Residual
  Residual-Control   Outer-Iter.   Inner-Iter.     Column Row Layer    Max.-Head-Change    Column Row Layer    Max.-Flux-Residual            L2-New               L2-Old           Solver-Max-Delh
          0                 1           6             9    9     2       0.1582917781E-01       9    9    1       0.1997027285E+02      0.4617291512E+02      0.1372829332E+01      0.1582917781E-01
          0                 2           5             9    9     2      -0.1367280476E-02       9    9    1      -0.1997716378E+01      0.4819361599E+01      0.4617291512E+02     -0.1367280476E-02
          0                 3           3             9    9     2      -0.6856326971E-04      19    9    1      -0.1273244555E+01      0.1295103359E+01      0.4819361599E+01     -0.6856326971E-04

    ------------------------------------------------
       NWT REQUIRED            3 OUTER ITERATIONS 
       AND A TOTAL OF         14 INNER ITERATIONS.
    ------------------------------------------------
                                                   Max.-Head-Change                        Max.-Flux-Residual
  Residual-Control   Outer-Iter.   Inner-Iter.     Column Row Layer    Max.-Head-Change    Column Row Layer    Max.-Flux-Residual            L2-New               L2-Old           Solver-Max-Delh
          0                 1           5             9    9     3      -0.6362887301E-02       9    9    1       0.9175078388E+01      0.2125200396E+02      0.1295103359E+01     -0.6362887301E-02
          0                 2           4             9    9     3       0.5486987878E-03      19    9    1      -0.1161383314E+01      0.2418690629E+01      0.2125200396E+02      0.5486987878E-03
          0                 3           3            19    9     1      -0.4323260681E-04      19    9    1      -0.1068502625E+01      0.1074350913E+01      0.2418690629E+01     -0.4323260681E-04

    ------------------------------------------------
       NWT REQUIRED            3 OUTER ITERATIONS 
       AND A TOTAL OF         12 INNER ITERATIONS.
    ------------------------------------------------
                                                   Max.-Head-Change                        Max.-Flux-Residual
  Residual-Control   Outer-Iter.   Inner-Iter.     Column Row Layer    Max.-Head-Change    Column Row Layer    Max.-Flux-Residual            L2-New               L2-Old           Solver-Max-Delh
          0                 1           5             9    9     3      -0.4381313586E-02       9   18    1      -0.3184971703E+01      0.9636710607E+01      0.1074350913E+01     -0.4381313586E-02
          0                 2           4             9    9     3       0.3781419331E-03      19    9    1      -0.9239655047E+00      0.1331511893E+01      0.9636710607E+01      0.3781419331E-03
          0                 3           2            19    9     1      -0.3436622791E-04      19    9    1      -0.8498011454E+00      0.8515290340E+00      0.1331511893E+01     -0.3436622791E-04

    ------------------------------------------------
       NWT REQUIRED            3 OUTER ITERATIONS 
       AND A TOTAL OF         11 INNER ITERATIONS.
    ------------------------------------------------
                                                   Max.-Head-Change                        Max.-Flux-Residual
  Residual-Control   Outer-Iter.   Inner-Iter.     Column Row Layer    Max.-Head-Change    Column Row Layer    Max.-Flux-Residual            L2-New               L2-Old           Solver-Max-Delh
          0                 1           5             9    9     2      -0.2811393625E-02       9   18    1      -0.1907049012E+01      0.5020014707E+01      0.8515290340E+00     -0.2811393625E-02
          0                 2           3             9    9     2       0.2430215437E-03      19    9    1      -0.7187283178E+00      0.8734127772E+00      0.5020014707E+01      0.2430215437E-03
          0                 3           2            19    9     1      -0.2673177740E-04      19    9    1      -0.6618177021E+00      0.6625852150E+00      0.8734127772E+00     -0.2673177740E-04

    ------------------------------------------------
       NWT REQUIRED            3 OUTER ITERATIONS 
       AND A TOTAL OF         10 INNER ITERATIONS.
    ------------------------------------------------
                                                   Max.-Head-Change                        Max.-Flux-Residual
  Residual-Control   Outer-Iter.   Inner-Iter.     Column Row Layer    Max.-Head-Change    Column Row Layer    Max.-Flux-Residual            L2-New               L2-Old           Solver-Max-Delh
          0                 1           4             9    9     2      -0.1459545187E-02       9   10    1      -0.1074062864E+01      0.2777231479E+01      0.6625852150E+00     -0.1459545187E-02
          0                 2           3             9    9     2       0.1261977406E-03      19    9    1      -0.5556313329E+00      0.6183213306E+00      0.2777231479E+01      0.1261977406E-03
          0                 3           2            19    9     1      -0.2065735937E-04      19    9    1      -0.5111353964E+00      0.5115482463E+00      0.6183213306E+00     -0.2065735937E-04

    ------------------------------------------------
       NWT REQUIRED            3 OUTER ITERATIONS 
       AND A TOTAL OF          9 INNER ITERATIONS.
    ------------------------------------------------
                                                   Max.-Head-Change                        Max.-Flux-Residual
  Residual-Control   Outer-Iter.   Inner-Iter.     Column Row Layer    Max.-Head-Change    Column Row Layer    Max.-Flux-Residual            L2-New               L2-Old           Solver-Max-Delh
          0                 1           4            12    8     1       0.4002771901E-03       9   10    1      -0.4929531505E+00      0.1463541078E+01      0.5115482463E+00      0.4002771901E-03
          0                 2           3            12    8     1      -0.3474038593E-04      19    9    1      -0.4290925949E+00      0.4511388032E+00      0.1463541078E+01     -0.3474038593E-04

    ------------------------------------------------
       NWT REQUIRED            2 OUTER ITERATIONS 
       AND A TOTAL OF          7 INNER ITERATIONS.
    ------------------------------------------------
                                                   Max.-Head-Change                        Max.-Flux-Residual
  Residual-Control   Outer-Iter.   Inner-Iter.     Column Row Layer    Max.-Head-Change    Column Row Layer    Max.-Flux-Residual            L2-New               L2-Old           Solver-Max-Delh
          0                 1           4             9    9     3       0.3646946923E-03      19    9    1      -0.3948824089E+00      0.7654861856E+00      0.4511388032E+00      0.3646946923E-03
          0                 2           2             9    9     3      -0.3125226730E-04      19    9    1      -0.3611889096E+00      0.3672835532E+00      0.7654861856E+00     -0.3125226730E-04

    ------------------------------------------------
       NWT REQUIRED            2 OUTER ITERATIONS 
       AND A TOTAL OF          6 INNER ITERATIONS.
    ------------------------------------------------

 OUTPUT CONTROL FOR STRESS PERIOD      1   TIME STEP     2
    SAVE BUDGET
 UBDSV1 SAVING "         STORAGE" ON UNIT  70 AT TIME STEP    2, STRESS PERIOD   1
 UBDSV2 SAVING "   CONSTANT HEAD" ON UNIT  70 AT TIME STEP    2, STRESS PERIOD   1
 UBDSV1 SAVING "FLOW RIGHT FACE " ON UNIT  70 AT TIME STEP    2, STRESS PERIOD   1
 UBDSV1 SAVING "FLOW FRONT FACE " ON UNIT  70 AT TIME STEP    2, STRESS PERIOD   1
 UBDSV1 SAVING "FLOW LOWER FACE " ON UNIT  70 AT TIME STEP    2, STRESS PERIOD   1
 UBDSV4 SAVING " HEAD DEP BOUNDS" ON UNIT  70 AT TIME STEP    2, STRESS PERIOD   1
 UBDSV4 SAVING "  STREAM LEAKAGE" ON UNIT  70 AT TIME STEP    2, STRESS PERIOD   1



 UBDSV4 SAVING "             MNW" ON UNIT  70 AT TIME STEP    2, STRESS PERIOD   1
 
 
 
 
 
 
 
 
 UBDSV3 SAVING "FARM  NET  RECH." ON UNIT  70 AT TIME STEP    2, STRESS PERIOD   1
 UBDSV4 SAVING " GHOST-NODE FLUX" ON UNIT  70 AT TIME STEP    2, STRESS PERIOD   1
 UBDSV4 SAVING " GHOST-NODE FLUX" ON UNIT  70 AT TIME STEP    2, STRESS PERIOD   1
 UBDSV4 SAVING " GHOST-NODE FLUX" ON UNIT  70 AT TIME STEP    2, STRESS PERIOD   1
1
  VOLUMETRIC BUDGET FOR ENTIRE MODEL AT END OF TIME STEP    2 IN STRESS PERIOD      1
  ------------------------------------------------------------------------------

     CUMULATIVE VOLUMES      L**3       RATES FOR THIS TIME STEP      L**3/T
     ------------------                 ------------------------

           IN:                                      IN:
           ---                                      ---
             STORAGE =     6185037.0000               STORAGE =       93825.4688
       CONSTANT HEAD =           0.0000         CONSTANT HEAD =           0.0000
     HEAD DEP BOUNDS =      130336.8750       HEAD DEP BOUNDS =        4452.0732
      STREAM LEAKAGE =      598982.1875        STREAM LEAKAGE =       20538.5391
                 MNW =        5010.5303                   MNW =         163.9418
          FARM WELLS =           0.0000            FARM WELLS =           0.0000
    FARM  NET  RECH. =     1018343.8750      FARM  NET  RECH. =       33635.2578
     GHOST-NODE FLUX =         688.4813       GHOST-NODE FLUX =          27.4709

            TOTAL IN =     7938399.0000              TOTAL IN =      152642.7500

          OUT:                                     OUT:
          ----                                     ----
             STORAGE =      331484.0312               STORAGE =       21793.8223
       CONSTANT HEAD =           0.0000         CONSTANT HEAD =           0.0000
     HEAD DEP BOUNDS =      577981.7500       HEAD DEP BOUNDS =       18920.0918
      STREAM LEAKAGE =      105104.4688        STREAM LEAKAGE =        3114.4890
                 MNW =        5010.5303                   MNW =         163.9418
          FARM WELLS =           0.0000            FARM WELLS =           0.0000
    FARM  NET  RECH. =        7672.9980      FARM  NET  RECH. =         221.4194
     GHOST-NODE FLUX =     6911149.5000       GHOST-NODE FLUX =      108429.2891

           TOTAL OUT =     7938403.0000             TOTAL OUT =      152643.0469

            IN - OUT =          -4.0000              IN - OUT =          -0.2969

 PERCENT DISCREPANCY =          -0.00     PERCENT DISCREPANCY =          -0.00






          TIME SUMMARY AT END OF TIME STEP     2 IN STRESS PERIOD      1
                    SECONDS     MINUTES      HOURS       DAYS        YEARS
                    -----------------------------------------------------------
   TIME STEP LENGTH 1.31414E+06  21902.      365.04      15.210     4.16427E-02
 STRESS PERIOD TIME 2.62829E+06  43805.      730.08      30.420     8.32854E-02
         TOTAL TIME 2.62829E+06  43805.      730.08      30.420     8.32854E-02
1
1
                            STRESS PERIOD NO.      2, LENGTH =   30.42000    
                            -----------------------------------------------

                              NUMBER OF TIME STEPS =     2

                               MULTIPLIER FOR DELT =     1.000

                            INITIAL TIME STEP SIZE =   15.21000    

 REUSING NON-PARAMETER GHB CELLS FROM LAST STRESS PERIOD

     92 GHB CELLS

 REUSING STREAM SEGMENT DATA FROM LAST STRESS PERIOD

 REUSING MNW7  FROM LAST STRESS PERIOD

 OPENING FILE ON UNIT   99:
 ./DATA_FMP/WELLS.in                                                                                                                                                                                                                                                                                                                                                                                                                                                                                                                                                                                                                                                                                                         
  PHIRAMP WILL BE SET TO A DEFAULT VALUE OF 0.05
  WELLS WITH REDUCED PUMPING WILL BE REPORTED TO THE MAIN LISTING FILE

 WELL NO. LAYER    ROW    COL  F-WELL ID    FARM ID         QMAX         QMAXRESET       
 ----------------------------------------------------------------------------------------
       1      1      5      6          1          1      5.0000E+00              0
       2      1      8      7          2          1      5.0000E+00              0
       3      1      8      9          3          1      5.0000E+00              0
       4      1      5      9          4          2      3.0000E+00              0
       5      1      6     10          5          2      2.0000E+00              0
       6      1      7     11          6          2      1.0000E+00              0
       7      1     18      3          7          3      2.0000E+00              0
       8      1     21      3          8          3      4.0000E+00              0
       9      1     18     19          9          4      3.0000E+00              0
      10      1     21     19         10          4      5.0000E+00              0
      11      0      6      2        -11          5      5.0000E+00              1
      12      0      8      2        -12          5      5.0000E+00              1
      13      0     10      2        -13          5      5.0000E+00              1
      14      0      3     19        -14          6      1.0000E+01              1
      15      0      6     17        -15          6      6.0000E+00              1

 Parameter:  WELLS1
 WELL NO. LAYER    ROW    COL  F-WELL ID    FARM ID         QMAX         QMAXRESET       
 ----------------------------------------------------------------------------------------
      16      1      5      6          1          1      5.0000E+03              0
      17      1      8      7          2          1      5.0000E+03              0
      18      1      8      9          3          1      5.0000E+03              0
      19      1      5      9          4          2      3.0000E+03              0
      20      1      6     10          5          2      2.0000E+03              0
      21      1      7     11          6          2      1.0000E+03              0
      22      1     18      3          7          3      2.0000E+03              0
      23      1     21      3          8          3      4.0000E+03              0
      24      1     18     19          9          4      3.0000E+03              0
      25      1     21     19         10          4      5.0000E+03              0
      26      0      6      2        -11          5      5.0000E+03              1
      27      0      8      2        -12          5      5.0000E+03              1
      28      0     10      2        -13          5      5.0000E+03              1
      29      0      3     19        -14          6      1.0000E+04              1
      30      0      6     17        -15          6      6.0000E+03              1

 NUMBER OF ACTIVE FARM WELLS:       30

 FARM-ID  NUMBER OF WELLS PER FARM  TOTAL MAX.CAPACITY PER FARM
       1                         0                       0.0000
       2                         0                       0.0000
       3                         4                    6006.0000
       4                         4                    8008.0000
       5                         6                   15015.0000
       6                         4                   16016.0000
       7                         0                       0.0000
       8                         0                       0.0000

 READING LIST ON UNIT   20 WITH FILE NAME: C:\MF_OWHM_Release_Package\MF_OWHM_v1_0\examples\test-run-owhm-lgr\fmp-lgr-nwt\DATA_FMP\OFE.in
 LIST SCALING FACTOR= 0.65000    
 (THE SCALE FACTOR WAS APPLIED TO FIELDS   2 -   7)

 Reading list on unit   30

 Reading list on unit   40

  REF. EVAPOTRANSPIRATION =  1.500000E-03

 READING LIST ON UNIT   50 WITH FILE NAME: C:\MF_OWHM_Release_Package\MF_OWHM_v1_0\examples\test-run-owhm-lgr\fmp-lgr-nwt\DATA_FMP\FTE.in

Transpiratory and Evaporative Fractions of Crop Consumptive Use
    % Transpiration % Evap. for Precip. % Evap. for Irrig.
    1          0.000          1.000          0.500
    2          0.822          0.178          0.158
    3          0.845          0.155          0.155
    4          0.125          0.875          0.875
    5          0.783          0.217          0.000
    6          0.400          0.600          0.000

 READING LIST ON UNIT   60 WITH FILE NAME: C:\MF_OWHM_Release_Package\MF_OWHM_v1_0\examples\test-run-owhm-lgr\fmp-lgr-nwt\DATA_FMP\INEFFSW.in

FRACTIONS OF IN-EFFICIENT LOSSES TO SW-RUNOFF FROM 
     PRECIPITATION:  IRRIGATION:
    1          0.500          0.600
    2          0.400          0.300
    3          0.600          0.500
    4          0.700          0.600
    5          0.850          0.000
    6          0.750          0.000

       PRECIPITATION FLUX =  2.630000E-03

 OPENING FILE WITH FILENAME: ./DATA_FMP/NRDV.in
 AND UNIT NUMBER: -148
 READING SCALE FACTOR LIST ON UNIT   80 ASSOCIATED WITH FILE: C:\MF_OWHM_Release_Package\MF_OWHM_v1_0\examples\test-run-owhm-lgr\fmp-lgr-nwt\DATA_FMP\NRDV.in
 FIELD     SCALE FACTOR
     1       1.0000    
     2       2.0000    
     3       1.0000    
     4       1.0000    

UNRANKED LIST OF NON-ROUTED DELIVERIES TO FARMS [L3]:
TYPE:             1

FARM-ID  VOLUME:
      1   3.000E+04
      2   3.000E+04
      3   4.000E+04
      4   2.000E+04
      5   2.000E+04
      6   4.000E+04
      7   0.000E+00
      8   0.000E+00

FARM-ID  PRIORITY RANK OF NRD-TYPE:
      1           1
      2           1
      3           1
      4           1
      5           1
      6           1
      7           1
      8           1

FARM-ID  USE-FLAG:
         0 = SUFFICIENT USE
         1 = ABSOLUTE USE (RECHARGE SURPLUS BACK INTO CANAL)
         2 = ABSOLUTE USE (INJECT SURPLUS INTO FARM-WELLS)
      1           0
      2           0
      3           0
      4           0
      5           0
      6           0
      7           0
      8           0

LIST OF NON-ROUTED DELIVERIES IN RANKED SEQUENCE [L3/T]:

FARM-ID  RATE:
      1   9.862E+02
      2   9.862E+02
      3   1.315E+03
      4   6.575E+02
      5   6.575E+02
      6   1.315E+03
      7   0.000E+00
      8   0.000E+00

FARM-ID  USE-FLAG:
         0 = SUFFICIENT USE
         1 = ABSOLUTE USE (RECHARGE SURPLUS BACK INTO CANAL)
         2 = ABSOLUTE USE (INJECT SURPLUS INTO FARM-WELLS)
      1           0
      2           0
      3           0
      4           0
      5           0
      6           0
      7           0
      8           0

SURFACE-WATER FARM ALLOTMENT HEIGHT [L]:   0.000

READING NWT SOLVER STRESS PERIOD INFORMATION


########################################################################################################################
NWT INPUT FILE STRESS PERIOD CONVERGENCE INFORMATION FAILED READ FOR STRESS PERIOD     2
 REUSING PREVIOUSLY DEFINED CRITERIA FOR REMAINDER OF SIMULATION.
########################################################################################################################
 
 SOLVING FOR HEAD 
                                                   Max.-Head-Change                        Max.-Flux-Residual
  Residual-Control   Outer-Iter.   Inner-Iter.     Column Row Layer    Max.-Head-Change    Column Row Layer    Max.-Flux-Residual            L2-New               L2-Old           Solver-Max-Delh
          0                 1           9            10    5     4      -0.1938051634E+01       9    9    1       0.1468531668E+04      0.7915713039E+04      0.3672835532E+00     -0.1938051634E+01
          0                 2           9             9   10     1       0.1769367043E+01       8   10    1       0.1921317269E+04      0.5275674532E+04      0.7915713039E+04      0.1769367043E+01
          0                 3           7             9    9     1      -0.1317861114E+00       9    9    1      -0.3542861015E+03      0.8670880626E+03      0.5275674532E+04     -0.1317861114E+00
          0                 4           6            20   10     1       0.4089824996E-01       2    6    1       0.6792723405E+02      0.1266569048E+03      0.8670880626E+03      0.4089824996E-01
          0                 5           6             2    8     3       0.8597663085E-02       2    6    1       0.2025277684E+02      0.3418743180E+02      0.1266569048E+03      0.8597663085E-02
          0                 6           5             2    8     3       0.2683497198E-02      20   15    1       0.7249276875E+01      0.1243433418E+02      0.3418743180E+02      0.2683497198E-02
          0                 7           4             2    8     3       0.8316915099E-03      20   15    1       0.6902714089E+01      0.7595662762E+01      0.1243433418E+02      0.8316915099E-03
          0                 8           4            20   15     1       0.4121712510E-02      20   15    1       0.6533210849E+01      0.6660370483E+01      0.7595662762E+01      0.4121712510E-02
          0                 9           3            20   15     1       0.3549437529E-03      20    9    1       0.9216094294E+00      0.1095351050E+01      0.6660370483E+01      0.3549437529E-03
          0                10           3            20    9     1       0.3261153192E-04      20    9    1       0.8825274397E+00      0.8880833695E+00      0.1095351050E+01      0.3261153192E-04

    ------------------------------------------------
       NWT REQUIRED           10 OUTER ITERATIONS 
       AND A TOTAL OF         56 INNER ITERATIONS.
    ------------------------------------------------
                                                   Max.-Head-Change                        Max.-Flux-Residual
  Residual-Control   Outer-Iter.   Inner-Iter.     Column Row Layer    Max.-Head-Change    Column Row Layer    Max.-Flux-Residual            L2-New               L2-Old           Solver-Max-Delh
          0                 1           9             9    9     1       0.4857276474E+01       9    9    1       0.3725542138E+04      0.7658687807E+04      0.8880833695E+00      0.4857276474E+01
          0                 2           7             9    9     1      -0.4777602803E+00       9    9    1      -0.4874424110E+03      0.8819371914E+03      0.7658687807E+04     -0.4777602803E+00
          0                 3           6             9    9     1      -0.2465416976E-01       9    9    1      -0.2551725434E+02      0.4959239026E+02      0.8819371914E+03     -0.2465416976E-01
          0                 4           4             9    9     1      -0.1240271550E-02      20    9    1       0.1822920858E+02      0.1853034092E+02      0.4959239026E+02     -0.1240271550E-02
          0                 5           4            20    9     1       0.7292265791E-03      20    9    1       0.1704630405E+02      0.1706439868E+02      0.1853034092E+02      0.7292265791E-03
          0                 6           4            20    9     1       0.6832928610E-03      20    9    1       0.1595616449E+02      0.1595852203E+02      0.1706439868E+02      0.6832928610E-03
          0                 7           3            20    9     1       0.6410627635E-03      20    9    1       0.1495134198E+02      0.1495212882E+02      0.1595852203E+02      0.6410627635E-03
          0                 8           3            20    9     1       0.6021232218E-03      20    9    1       0.1402829693E+02      0.1402887963E+02      0.1495212882E+02      0.6021232218E-03
          0                 9           3            20    9     1       0.5662575261E-03      20    9    1       0.1317764844E+02      0.1317818513E+02      0.1402887963E+02      0.5662575261E-03
          0                10           5            20    9     1       0.9635941767E-02      20    9    1       0.1239547599E+02      0.1239597670E+02      0.1317818513E+02      0.9635941767E-02
                                                   Max.-Head-Change                        Max.-Flux-Residual
  Residual-Control   Outer-Iter.   Inner-Iter.     Column Row Layer    Max.-Head-Change    Column Row Layer    Max.-Flux-Residual            L2-New               L2-Old           Solver-Max-Delh
          0                11           4            20   10     2       0.6211050763E-03      20    9    1      -0.8102926222E+00      0.1481611553E+01      0.1239597670E+02      0.6211050763E-03
          0                12           3            20   10     2       0.1196977162E-03      18    9    1       0.1334665223E+00      0.2993675161E+00      0.1481611553E+01      0.1196977162E-03
          0                13           2            20   10     2       0.2279200934E-04      18    9    1       0.2819538489E-01      0.6694391627E-01      0.2993675161E+00      0.2279200934E-04

    ------------------------------------------------
       NWT REQUIRED           13 OUTER ITERATIONS 
       AND A TOTAL OF         57 INNER ITERATIONS.
    ------------------------------------------------
                                                   Max.-Head-Change                        Max.-Flux-Residual
  Residual-Control   Outer-Iter.   Inner-Iter.     Column Row Layer    Max.-Head-Change    Column Row Layer    Max.-Flux-Residual            L2-New               L2-Old           Solver-Max-Delh
          0                 1           8             9    5     1       0.1196151574E+01       9    5    1       0.9229764111E+03      0.2999597758E+04      0.6694391627E-01      0.1196151574E+01
          0                 2           7             9    5     1      -0.1066764550E+00       9    5    1      -0.9881714136E+02      0.3303499942E+03      0.2999597758E+04     -0.1066764550E+00
          0                 3           5             9    5     1      -0.5374264164E-02       9    5    1      -0.4994027250E+01      0.1694058978E+02      0.3303499942E+03     -0.5374264164E-02
          0                 4           4             2    8     3      -0.3223422774E-03       2    8    1      -0.7168618219E+00      0.1401313042E+01      0.1694058978E+02     -0.3223422774E-03
          0                 5           3             2    8     3      -0.9852545853E-04       2    8    1      -0.2275596939E+00      0.3543760960E+00      0.1401313042E+01     -0.9852545853E-04

    ------------------------------------------------
       NWT REQUIRED            5 OUTER ITERATIONS 
       AND A TOTAL OF         27 INNER ITERATIONS.
    ------------------------------------------------
                                                   Max.-Head-Change                        Max.-Flux-Residual
  Residual-Control   Outer-Iter.   Inner-Iter.     Column Row Layer    Max.-Head-Change    Column Row Layer    Max.-Flux-Residual            L2-New               L2-Old           Solver-Max-Delh
          0                 1           8             9    5     2       0.3996169084E+00       9    9    1      -0.3851617448E+03      0.1180600719E+04      0.3543760960E+00      0.3996169084E+00
          0                 2           6             9    5     2      -0.3466477601E-01       9    9    1       0.3840083498E+02      0.1194854710E+03      0.1180600719E+04     -0.3466477601E-01
          0                 3           5             9    5     2      -0.1737049862E-02       9    9    1       0.1919200348E+01      0.6103699391E+01      0.1194854710E+03     -0.1737049862E-02
          0                 4           4             2    8     3      -0.1238885431E-03       2    6    1      -0.2832944323E+00      0.5257723938E+00      0.6103699391E+01     -0.1238885431E-03
          0                 5           3             2    8     3      -0.3756870265E-04       2    8    1      -0.8649950312E-01      0.1351190940E+00      0.5257723938E+00     -0.3756870265E-04

    ------------------------------------------------
       NWT REQUIRED            5 OUTER ITERATIONS 
       AND A TOTAL OF         26 INNER ITERATIONS.
    ------------------------------------------------
                                                   Max.-Head-Change                        Max.-Flux-Residual
  Residual-Control   Outer-Iter.   Inner-Iter.     Column Row Layer    Max.-Head-Change    Column Row Layer    Max.-Flux-Residual            L2-New               L2-Old           Solver-Max-Delh
          0                 1           7             9    9     1      -0.4474753700E+00       9    9    1      -0.4797793055E+03      0.6089146214E+03      0.1351190940E+00     -0.4474753700E+00
          0                 2           6             9    9     1       0.3822817516E-01       9    9    1       0.4697710470E+02      0.6023541147E+02      0.6089146214E+03      0.3822817516E-01
          0                 3           4             9    9     1       0.1906179099E-02       9    9    1       0.2341337280E+01      0.3026322942E+01      0.6023541147E+02      0.1906179099E-02
          0                 4           3             9    9     1       0.9505754494E-04       9    9    1       0.1171353104E+00      0.1950153670E+00      0.3026322942E+01      0.9505754494E-04

    ------------------------------------------------
       NWT REQUIRED            4 OUTER ITERATIONS 
       AND A TOTAL OF         20 INNER ITERATIONS.
    ------------------------------------------------
                                                   Max.-Head-Change                        Max.-Flux-Residual
  Residual-Control   Outer-Iter.   Inner-Iter.     Column Row Layer    Max.-Head-Change    Column Row Layer    Max.-Flux-Residual            L2-New               L2-Old           Solver-Max-Delh
          0                 1           6             9    9     1      -0.2643697804E+00       9    9    1      -0.2705743276E+03      0.3176230554E+03      0.1950153670E+00     -0.2643697804E+00
          0                 2           5             9    9     1       0.2267679578E-01       9    9    1       0.2670148845E+02      0.3147973611E+02      0.3176230554E+03      0.2267679578E-01
          0                 3           4             9    9     1       0.1132302538E-02       9    9    1       0.1332335918E+01      0.1572014020E+01      0.3147973611E+02      0.1132302538E-02
          0                 4           2             9    9     1       0.5651436257E-04       9    9    1       0.6665325322E-01      0.8028829381E-01      0.1572014020E+01      0.5651436257E-04

    ------------------------------------------------
       NWT REQUIRED            4 OUTER ITERATIONS 
       AND A TOTAL OF         17 INNER ITERATIONS.
    ------------------------------------------------
                                                   Max.-Head-Change                        Max.-Flux-Residual
  Residual-Control   Outer-Iter.   Inner-Iter.     Column Row Layer    Max.-Head-Change    Column Row Layer    Max.-Flux-Residual            L2-New               L2-Old           Solver-Max-Delh
          0                 1           6             9    9     1      -0.8980827031E-01       9    9    1      -0.9014395236E+02      0.1595848797E+03      0.8028829381E-01     -0.8980827031E-01
          0                 2           5             9    9     1       0.7737886078E-02       9    9    1       0.8974021401E+01      0.1591516791E+02      0.1595848797E+03      0.7737886078E-02
          0                 3           4             9    9     1       0.3868143670E-03       9    9    1       0.4483409243E+00      0.7991050144E+00      0.1591516791E+02      0.3868143670E-03
          0                 4           2             9    9     1       0.1923363768E-04       9    9    1       0.2229397971E-01      0.4870220220E-01      0.7991050144E+00      0.1923363768E-04

    ------------------------------------------------
       NWT REQUIRED            4 OUTER ITERATIONS 
       AND A TOTAL OF         17 INNER ITERATIONS.
    ------------------------------------------------
                                                   Max.-Head-Change                        Max.-Flux-Residual
  Residual-Control   Outer-Iter.   Inner-Iter.     Column Row Layer    Max.-Head-Change    Column Row Layer    Max.-Flux-Residual            L2-New               L2-Old           Solver-Max-Delh
          0                 1           6             9    5     1      -0.4307774947E-01       9    5    1      -0.3739970613E+02      0.9535084287E+02      0.4870220220E-01     -0.4307774947E-01
          0                 2           5             9    5     1       0.3715486502E-02       9    5    1       0.3729727718E+01      0.9521279227E+01      0.9535084287E+02      0.3715486502E-02
          0                 3           4             9    5     1       0.1858908783E-03       9    5    1       0.1865992477E+00      0.4816993292E+00      0.9521279227E+01      0.1858908783E-03
          0                 4           2             9    5     1       0.9371532848E-05       2    6    1       0.1697476103E-01      0.3614037521E-01      0.4816993292E+00      0.9371532848E-05

    ------------------------------------------------
       NWT REQUIRED            4 OUTER ITERATIONS 
       AND A TOTAL OF         17 INNER ITERATIONS.
    ------------------------------------------------
                                                   Max.-Head-Change                        Max.-Flux-Residual
  Residual-Control   Outer-Iter.   Inner-Iter.     Column Row Layer    Max.-Head-Change    Column Row Layer    Max.-Flux-Residual            L2-New               L2-Old           Solver-Max-Delh
          0                 1           6             9    5     1      -0.2357554099E-01       9    5    1      -0.1989313012E+02      0.5905406716E+02      0.3614037521E-01     -0.2357554099E-01
          0                 2           5             9    5     1       0.2034362275E-02       9    5    1       0.1986030026E+01      0.5901729999E+01      0.5905406716E+02      0.2034362275E-02
          0                 3           3             9    5     1       0.1017514314E-03       9    5    1       0.9947881685E-01      0.2991817845E+00      0.5901729999E+01      0.1017514314E-03
          0                 4           2             9    5     2       0.5289688232E-05       2    6    1       0.1215899817E-01      0.2427410622E-01      0.2991817845E+00      0.5289688232E-05

    ------------------------------------------------
       NWT REQUIRED            4 OUTER ITERATIONS 
       AND A TOTAL OF         16 INNER ITERATIONS.
    ------------------------------------------------
                                                   Max.-Head-Change                        Max.-Flux-Residual
  Residual-Control   Outer-Iter.   Inner-Iter.     Column Row Layer    Max.-Head-Change    Column Row Layer    Max.-Flux-Residual            L2-New               L2-Old           Solver-Max-Delh
          0                 1           6             9    9     1       0.1041319080E-01       9    9    1       0.1308780002E+02      0.3119202251E+02      0.2427410622E-01      0.1041319080E-01
          0                 2           4             9    9     1      -0.8992444608E-03       9    9    1      -0.1308871766E+01      0.3118263930E+01      0.3119202251E+02     -0.8992444608E-03
          0                 3           3             9    5     1       0.4522272975E-04       9    9    1      -0.6547545077E-01      0.1589490348E+00      0.3118263930E+01      0.4522272975E-04

    ------------------------------------------------
       NWT REQUIRED            3 OUTER ITERATIONS 
       AND A TOTAL OF         13 INNER ITERATIONS.
    ------------------------------------------------
                                                   Max.-Head-Change                        Max.-Flux-Residual
  Residual-Control   Outer-Iter.   Inner-Iter.     Column Row Layer    Max.-Head-Change    Column Row Layer    Max.-Flux-Residual            L2-New               L2-Old           Solver-Max-Delh
          0                 1           5             6    7     2      -0.4366117024E-02       9    9    1       0.5703858396E+01      0.1355828107E+02      0.1589490348E+00     -0.4366117024E-02
          0                 2           4             6    7     2       0.3765116020E-03       9    9    1      -0.5705170269E+00      0.1356225582E+01      0.1355828107E+02      0.3765116020E-03
          0                 3           2             6    7     2       0.1893399407E-04       9    9    1      -0.2856185881E-01      0.6958097833E-01      0.1356225582E+01      0.1893399407E-04

    ------------------------------------------------
       NWT REQUIRED            3 OUTER ITERATIONS 
       AND A TOTAL OF         11 INNER ITERATIONS.
    ------------------------------------------------
                                                   Max.-Head-Change                        Max.-Flux-Residual
  Residual-Control   Outer-Iter.   Inner-Iter.     Column Row Layer    Max.-Head-Change    Column Row Layer    Max.-Flux-Residual            L2-New               L2-Old           Solver-Max-Delh
          0                 1           5             9    9     3      -0.3008058169E-02      11   11    1      -0.1923077327E+01      0.5407475910E+01      0.6958097833E-01     -0.3008058169E-02
          0                 2           4             9    9     3       0.2596778240E-03      11   11    1       0.1923058336E+00      0.5408375589E+00      0.5407475910E+01      0.2596778240E-03
          0                 3           2             9    9     3       0.1284217445E-04       7    9    1       0.9885421256E-02      0.2921331655E-01      0.5408375589E+00      0.1284217445E-04

    ------------------------------------------------
       NWT REQUIRED            3 OUTER ITERATIONS 
       AND A TOTAL OF         11 INNER ITERATIONS.
    ------------------------------------------------
                                                   Max.-Head-Change                        Max.-Flux-Residual
  Residual-Control   Outer-Iter.   Inner-Iter.     Column Row Layer    Max.-Head-Change    Column Row Layer    Max.-Flux-Residual            L2-New               L2-Old           Solver-Max-Delh
          0                 1           4             9    9     2      -0.1870161452E-02       7    9    1      -0.1131641312E+01      0.2722446752E+01      0.2921331655E-01     -0.1870161452E-02
          0                 2           3             9    9     2       0.1615829782E-03       7    9    1       0.1130439474E+00      0.2720940021E+00      0.2722446752E+01      0.1615829782E-03
          0                 3           2             9    9     2       0.7821182904E-05       7    9    1       0.5976444168E-02      0.1632166827E-01      0.2720940021E+00      0.7821182904E-05

    ------------------------------------------------
       NWT REQUIRED            3 OUTER ITERATIONS 
       AND A TOTAL OF          9 INNER ITERATIONS.
    ------------------------------------------------
                                                   Max.-Head-Change                        Max.-Flux-Residual
  Residual-Control   Outer-Iter.   Inner-Iter.     Column Row Layer    Max.-Head-Change    Column Row Layer    Max.-Flux-Residual            L2-New               L2-Old           Solver-Max-Delh
          0                 1           4             9    9     2      -0.9793698606E-03       9   10    1      -0.6546566940E+00      0.1604886944E+01      0.1632166827E-01     -0.9793698606E-03
          0                 2           3             9    9     2       0.8452181674E-04       9   10    1       0.6552912036E-01      0.1609421235E+00      0.1604886944E+01      0.8452181674E-04

    ------------------------------------------------
       NWT REQUIRED            2 OUTER ITERATIONS 
       AND A TOTAL OF          7 INNER ITERATIONS.
    ------------------------------------------------
                                                   Max.-Head-Change                        Max.-Flux-Residual
  Residual-Control   Outer-Iter.   Inner-Iter.     Column Row Layer    Max.-Head-Change    Column Row Layer    Max.-Flux-Residual            L2-New               L2-Old           Solver-Max-Delh
          0                 1           4            12    8     1       0.2819096275E-03       9   10    1      -0.3187071311E+00      0.8507021645E+00      0.1609421235E+00      0.2819096275E-03
          0                 2           2            12    8     1      -0.2430091165E-04       9   10    1       0.3185039148E-01      0.8557978055E-01      0.8507021645E+00     -0.2430091165E-04

    ------------------------------------------------
       NWT REQUIRED            2 OUTER ITERATIONS 
       AND A TOTAL OF          6 INNER ITERATIONS.
    ------------------------------------------------

 OUTPUT CONTROL FOR STRESS PERIOD      2   TIME STEP     1
    SAVE BUDGET
 UBDSV1 SAVING "         STORAGE" ON UNIT  70 AT TIME STEP    1, STRESS PERIOD   2
 UBDSV2 SAVING "   CONSTANT HEAD" ON UNIT  70 AT TIME STEP    1, STRESS PERIOD   2
 UBDSV1 SAVING "FLOW RIGHT FACE " ON UNIT  70 AT TIME STEP    1, STRESS PERIOD   2
 UBDSV1 SAVING "FLOW FRONT FACE " ON UNIT  70 AT TIME STEP    1, STRESS PERIOD   2
 UBDSV1 SAVING "FLOW LOWER FACE " ON UNIT  70 AT TIME STEP    1, STRESS PERIOD   2
 UBDSV4 SAVING " HEAD DEP BOUNDS" ON UNIT  70 AT TIME STEP    1, STRESS PERIOD   2
 UBDSV4 SAVING "  STREAM LEAKAGE" ON UNIT  70 AT TIME STEP    1, STRESS PERIOD   2



 UBDSV4 SAVING "             MNW" ON UNIT  70 AT TIME STEP    1, STRESS PERIOD   2
 
 
 
 
 
 
 
 
 UBDSV3 SAVING "FARM  NET  RECH." ON UNIT  70 AT TIME STEP    1, STRESS PERIOD   2
 UBDSV4 SAVING " GHOST-NODE FLUX" ON UNIT  70 AT TIME STEP    1, STRESS PERIOD   2
 UBDSV4 SAVING " GHOST-NODE FLUX" ON UNIT  70 AT TIME STEP    1, STRESS PERIOD   2
 UBDSV4 SAVING " GHOST-NODE FLUX" ON UNIT  70 AT TIME STEP    1, STRESS PERIOD   2
 
 SOLVING FOR HEAD 
                                                   Max.-Head-Change                        Max.-Flux-Residual
  Residual-Control   Outer-Iter.   Inner-Iter.     Column Row Layer    Max.-Head-Change    Column Row Layer    Max.-Flux-Residual            L2-New               L2-Old           Solver-Max-Delh
          0                 1           9             9    9     1       0.3731605459E+01       9    9    1       0.2269286142E+04      0.6499080907E+04      0.8557978055E-01      0.3731605459E+01
          0                 2           7            12   16     1      -0.4281835922E+00      13   16    1      -0.1435896774E+04      0.2590367451E+04      0.6499080907E+04     -0.4281835922E+00
          0                 3           6            12   16     1      -0.3226328508E-01      15   16    1      -0.1165248480E+03      0.2230674461E+03      0.2590367451E+04     -0.3226328508E-01
          0                 4           5             2    8     3       0.3483986417E-02      16   16    1      -0.1089186725E+02      0.2502229480E+02      0.2230674461E+03      0.3483986417E-02
          0                 5           4             2    8     3       0.1085077477E-02       2    8    1       0.2426331410E+01      0.4743689304E+01      0.2502229480E+02      0.1085077477E-02
          0                 6           4             2    8     3       0.3373107076E-03       2    8    1       0.7627322014E+00      0.1301297997E+01      0.4743689304E+01      0.3373107076E-03
          0                 7           3             2    8     3       0.1040431335E-03       2    8    1       0.2384277796E+00      0.3870619412E+00      0.1301297997E+01      0.1040431335E-03
          0                 8           2             2    8     3       0.3167159281E-04       2    8    1       0.7311130513E-01      0.1162657486E+00      0.3870619412E+00      0.3167159281E-04

    ------------------------------------------------
       NWT REQUIRED            8 OUTER ITERATIONS 
       AND A TOTAL OF         40 INNER ITERATIONS.
    ------------------------------------------------
                                                   Max.-Head-Change                        Max.-Flux-Residual
  Residual-Control   Outer-Iter.   Inner-Iter.     Column Row Layer    Max.-Head-Change    Column Row Layer    Max.-Flux-Residual            L2-New               L2-Old           Solver-Max-Delh
          0                 1           8             9    9     1       0.2052755519E+01       9    9    1       0.1678967606E+04      0.3537593822E+04      0.1162657486E+00      0.2052755519E+01
          0                 2           7             9    9     1      -0.1877779014E+00       9    9    1      -0.1881083220E+03      0.4079222191E+03      0.3537593822E+04     -0.1877779014E+00
          0                 3           5             9    9     1      -0.9510293343E-02      15   16    1       0.1814037318E+02      0.2689927413E+02      0.4079222191E+03     -0.9510293343E-02
          0                 4           4            15   16     1       0.9010807958E-03      15   16    1       0.2513196405E+01      0.2983187402E+01      0.2689927413E+02      0.9010807958E-03
          0                 5           3            15   16     1       0.1560848670E-03      15   16    1       0.4388070625E+00      0.5954492493E+00      0.2983187402E+01      0.1560848670E-03
          0                 6           3             2    8     3      -0.3330589522E-04      15   16    1       0.8899180882E-01      0.1501352044E+00      0.5954492493E+00     -0.3330589522E-04

    ------------------------------------------------
       NWT REQUIRED            6 OUTER ITERATIONS 
       AND A TOTAL OF         30 INNER ITERATIONS.
    ------------------------------------------------
                                                   Max.-Head-Change                        Max.-Flux-Residual
  Residual-Control   Outer-Iter.   Inner-Iter.     Column Row Layer    Max.-Head-Change    Column Row Layer    Max.-Flux-Residual            L2-New               L2-Old           Solver-Max-Delh
          0                 1           8             9    5     2       0.5317151650E+00       9    5    1       0.4196385726E+03      0.1232676436E+04      0.1501352044E+00      0.5317151650E+00
          0                 2           6            12   10     1      -0.5149511941E-01      15   16    1       0.8070090866E+02      0.1800015447E+03      0.1232676436E+04     -0.5149511941E-01
          0                 3           5            12   10     1      -0.2586725648E-02      12   12    1      -0.3045544157E+01      0.8785418245E+01      0.1800015447E+03     -0.2586725648E-02
          0                 4           4            15   16     1      -0.1815255933E-03      15   16    1      -0.5244308364E+00      0.8515572451E+00      0.8785418245E+01     -0.1815255933E-03
          0                 5           3             2    8     3      -0.4523408001E-04      15   16    1      -0.1167838495E+00      0.2005113392E+00      0.8515572451E+00     -0.4523408001E-04

    ------------------------------------------------
       NWT REQUIRED            5 OUTER ITERATIONS 
       AND A TOTAL OF         26 INNER ITERATIONS.
    ------------------------------------------------
                                                   Max.-Head-Change                        Max.-Flux-Residual
  Residual-Control   Outer-Iter.   Inner-Iter.     Column Row Layer    Max.-Head-Change    Column Row Layer    Max.-Flux-Residual            L2-New               L2-Old           Solver-Max-Delh
          0                 1           7             9    9     1      -0.3178618568E+00       9    9    1      -0.3516687425E+03      0.5563735106E+03      0.2005113392E+00     -0.3178618568E+00
          0                 2           6             9    9     1       0.2725293603E-01       9    9    1       0.3465985426E+02      0.5972551774E+02      0.5563735106E+03      0.2725293603E-01
          0                 3           4            16   16     1       0.1758313472E-02      16   16    1       0.5428243521E+01      0.8098976112E+01      0.5972551774E+02      0.1758313472E-02
          0                 4           3            16   16     1      -0.6506577782E-03      16   16    1      -0.1877073910E+01      0.1896129309E+01      0.8098976112E+01     -0.6506577782E-03
          0                 5           3            16   16     1      -0.1338220184E-03      16   16    1      -0.3813318781E+00      0.3861535008E+00      0.1896129309E+01     -0.1338220184E-03
          0                 6           2            16   16     1      -0.2864623276E-04      16   16    1      -0.8380729856E-01      0.8663236333E-01      0.3861535008E+00     -0.2864623276E-04

    ------------------------------------------------
       NWT REQUIRED            6 OUTER ITERATIONS 
       AND A TOTAL OF         25 INNER ITERATIONS.
    ------------------------------------------------
                                                   Max.-Head-Change                        Max.-Flux-Residual
  Residual-Control   Outer-Iter.   Inner-Iter.     Column Row Layer    Max.-Head-Change    Column Row Layer    Max.-Flux-Residual            L2-New               L2-Old           Solver-Max-Delh
          0                 1           7             9    9     1      -0.2776695058E+00       9    9    1      -0.2833646811E+03      0.3223345078E+03      0.8663236333E-01     -0.2776695058E+00
          0                 2           5             9    9     1       0.2381014328E-01       9    9    1       0.2793924583E+02      0.3196847763E+02      0.3223345078E+03      0.2381014328E-01
          0                 3           4             9    9     1       0.1188593453E-02       9    9    1       0.1394008985E+01      0.1597423421E+01      0.3196847763E+02      0.1188593453E-02
          0                 4           2             9    9     1       0.5897887023E-04       9    9    1       0.6941222603E-01      0.8714122982E-01      0.1597423421E+01      0.5897887023E-04

    ------------------------------------------------
       NWT REQUIRED            4 OUTER ITERATIONS 
       AND A TOTAL OF         18 INNER ITERATIONS.
    ------------------------------------------------
                                                   Max.-Head-Change                        Max.-Flux-Residual
  Residual-Control   Outer-Iter.   Inner-Iter.     Column Row Layer    Max.-Head-Change    Column Row Layer    Max.-Flux-Residual            L2-New               L2-Old           Solver-Max-Delh
          0                 1           6             9    9     1      -0.1272286046E+00       9    9    1      -0.1262312674E+03      0.1651226099E+03      0.8714122982E-01     -0.1272286046E+00
          0                 2           5             9    9     1       0.1095086130E-01       9    9    1       0.1254035690E+02      0.1694510598E+02      0.1651226099E+03      0.1095086130E-01
          0                 3           4             9    9     1       0.5471195043E-03      16   16    1      -0.7157829767E+00      0.1110209838E+01      0.1694510598E+02      0.5471195043E-03
          0                 4           2            16   16     1      -0.3281579890E-04      16   16    1      -0.9656797018E-01      0.1075061939E+00      0.1110209838E+01     -0.3281579890E-04

    ------------------------------------------------
       NWT REQUIRED            4 OUTER ITERATIONS 
       AND A TOTAL OF         17 INNER ITERATIONS.
    ------------------------------------------------
                                                   Max.-Head-Change                        Max.-Flux-Residual
  Residual-Control   Outer-Iter.   Inner-Iter.     Column Row Layer    Max.-Head-Change    Column Row Layer    Max.-Flux-Residual            L2-New               L2-Old           Solver-Max-Delh
          0                 1           6             9    5     1      -0.3904822893E-01       9    5    1      -0.3515096480E+02      0.8920968238E+02      0.1075061939E+00     -0.3904822893E-01
          0                 2           5             9    5     1       0.3368524513E-02      15   16    1      -0.3628467540E+01      0.9665080115E+01      0.8920968238E+02      0.3368524513E-02
          0                 3           3             9    5     1       0.1685484282E-03       9    5    1       0.1753244579E+00      0.4803900626E+00      0.9665080115E+01      0.1685484282E-03
          0                 4           2             9    5     1       0.8585712534E-05      16   16    1      -0.1544873678E-01      0.3695476810E-01      0.4803900626E+00      0.8585712534E-05

    ------------------------------------------------
       NWT REQUIRED            4 OUTER ITERATIONS 
       AND A TOTAL OF         16 INNER ITERATIONS.
    ------------------------------------------------
                                                   Max.-Head-Change                        Max.-Flux-Residual
  Residual-Control   Outer-Iter.   Inner-Iter.     Column Row Layer    Max.-Head-Change    Column Row Layer    Max.-Flux-Residual            L2-New               L2-Old           Solver-Max-Delh
          0                 1           6             9    5     1      -0.2427146089E-01       9    5    1      -0.2135125333E+02      0.5687210157E+02      0.3695476810E-01     -0.2427146089E-01
          0                 2           5             9    5     1       0.2094815033E-02      15   16    1      -0.3282128395E+01      0.6563447201E+01      0.5687210157E+02      0.2094815033E-02
          0                 3           3             9    5     1       0.1047692773E-03       9    5    1       0.1064877007E+00      0.2922280134E+00      0.6563447201E+01      0.1047692773E-03
          0                 4           2             9    5     2       0.5092151283E-05       2    6    1       0.1188445638E-01      0.2856857050E-01      0.2922280134E+00      0.5092151283E-05

    ------------------------------------------------
       NWT REQUIRED            4 OUTER ITERATIONS 
       AND A TOTAL OF         16 INNER ITERATIONS.
    ------------------------------------------------
                                                   Max.-Head-Change                        Max.-Flux-Residual
  Residual-Control   Outer-Iter.   Inner-Iter.     Column Row Layer    Max.-Head-Change    Column Row Layer    Max.-Flux-Residual            L2-New               L2-Old           Solver-Max-Delh
          0                 1           6             9    5     1      -0.1205558298E-01       9    9    1       0.1304182438E+02      0.3307494655E+02      0.2856857050E-01     -0.1205558298E-01
          0                 2           4             9    5     1       0.1040542571E-02      15   16    1      -0.1903510944E+01      0.3816035070E+01      0.3307494655E+02      0.1040542571E-02
          0                 3           3             9    5     1       0.5223415987E-04       9    9    1      -0.6486104202E-01      0.1696518937E+00      0.3816035070E+01      0.5223415987E-04

    ------------------------------------------------
       NWT REQUIRED            3 OUTER ITERATIONS 
       AND A TOTAL OF         13 INNER ITERATIONS.
    ------------------------------------------------
                                                   Max.-Head-Change                        Max.-Flux-Residual
  Residual-Control   Outer-Iter.   Inner-Iter.     Column Row Layer    Max.-Head-Change    Column Row Layer    Max.-Flux-Residual            L2-New               L2-Old           Solver-Max-Delh
          0                 1           5             9    9     1       0.5173912570E-02       9    9    1       0.7097598224E+01      0.1555416798E+02      0.1696518937E+00      0.5173912570E-02
          0                 2           4             9    9     1      -0.4470168488E-03      15   16    1      -0.1022513523E+01      0.1861377212E+01      0.1555416798E+02     -0.4470168488E-03
          0                 3           3             9    9     1      -0.2259403483E-04       9    9    1      -0.3593863535E-01      0.8201958147E-01      0.1861377212E+01     -0.2259403483E-04

    ------------------------------------------------
       NWT REQUIRED            3 OUTER ITERATIONS 
       AND A TOTAL OF         12 INNER ITERATIONS.
    ------------------------------------------------
                                                   Max.-Head-Change                        Max.-Flux-Residual
  Residual-Control   Outer-Iter.   Inner-Iter.     Column Row Layer    Max.-Head-Change    Column Row Layer    Max.-Flux-Residual            L2-New               L2-Old           Solver-Max-Delh
          0                 1           5             9    9     3      -0.2553689169E-02       9    9    1       0.2149269520E+01      0.5984723856E+01      0.8201958147E-01     -0.2553689169E-02
          0                 2           4             9    9     3       0.2203691589E-03      15   16    1      -0.5109297548E+00      0.7875129730E+00      0.5984723856E+01      0.2203691589E-03
          0                 3           2             9    9     3       0.1083504822E-04       9    9    1      -0.1109588280E-01      0.3297927955E-01      0.7875129730E+00      0.1083504822E-04

    ------------------------------------------------
       NWT REQUIRED            3 OUTER ITERATIONS 
       AND A TOTAL OF         11 INNER ITERATIONS.
    ------------------------------------------------
                                                   Max.-Head-Change                        Max.-Flux-Residual
  Residual-Control   Outer-Iter.   Inner-Iter.     Column Row Layer    Max.-Head-Change    Column Row Layer    Max.-Flux-Residual            L2-New               L2-Old           Solver-Max-Delh
          0                 1           4             9    9     3      -0.1692152310E-02       7    9    1      -0.1026668268E+01      0.2517727810E+01      0.3297927955E-01     -0.1692152310E-02
          0                 2           3             9    9     3       0.1457873122E-03      15   16    1      -0.2368979665E+00      0.3462930557E+00      0.2517727810E+01      0.1457873122E-03
          0                 3           2             9    9     3       0.7366206195E-05       7    9    1       0.5133712548E-02      0.1689916060E-01      0.3462930557E+00      0.7366206195E-05

    ------------------------------------------------
       NWT REQUIRED            3 OUTER ITERATIONS 
       AND A TOTAL OF          9 INNER ITERATIONS.
    ------------------------------------------------
                                                   Max.-Head-Change                        Max.-Flux-Residual
  Residual-Control   Outer-Iter.   Inner-Iter.     Column Row Layer    Max.-Head-Change    Column Row Layer    Max.-Flux-Residual            L2-New               L2-Old           Solver-Max-Delh
          0                 1           4             9    9     2      -0.1115074323E-02       9   10    1      -0.5936361139E+00      0.1511075193E+01      0.1689916060E-01     -0.1115074323E-02
          0                 2           3             9    9     2       0.9623235741E-04      15   16    1      -0.9845245420E-01      0.1808949249E+00      0.1511075193E+01      0.9623235741E-04

    ------------------------------------------------
       NWT REQUIRED            2 OUTER ITERATIONS 
       AND A TOTAL OF          7 INNER ITERATIONS.
    ------------------------------------------------
                                                   Max.-Head-Change                        Max.-Flux-Residual
  Residual-Control   Outer-Iter.   Inner-Iter.     Column Row Layer    Max.-Head-Change    Column Row Layer    Max.-Flux-Residual            L2-New               L2-Old           Solver-Max-Delh
          0                 1           4             9    9     2      -0.4096637756E-03       9   10    1      -0.3315925540E+00      0.8704528182E+00      0.1808949249E+00     -0.4096637756E-03
          0                 2           2             9    9     2       0.3501754394E-04      15   16    1      -0.4294668214E-01      0.9786491271E-01      0.8704528182E+00      0.3501754394E-04

    ------------------------------------------------
       NWT REQUIRED            2 OUTER ITERATIONS 
       AND A TOTAL OF          6 INNER ITERATIONS.
    ------------------------------------------------

 OUTPUT CONTROL FOR STRESS PERIOD      2   TIME STEP     2
    SAVE BUDGET
 UBDSV1 SAVING "         STORAGE" ON UNIT  70 AT TIME STEP    2, STRESS PERIOD   2
 UBDSV2 SAVING "   CONSTANT HEAD" ON UNIT  70 AT TIME STEP    2, STRESS PERIOD   2
 UBDSV1 SAVING "FLOW RIGHT FACE " ON UNIT  70 AT TIME STEP    2, STRESS PERIOD   2
 UBDSV1 SAVING "FLOW FRONT FACE " ON UNIT  70 AT TIME STEP    2, STRESS PERIOD   2
 UBDSV1 SAVING "FLOW LOWER FACE " ON UNIT  70 AT TIME STEP    2, STRESS PERIOD   2
 UBDSV4 SAVING " HEAD DEP BOUNDS" ON UNIT  70 AT TIME STEP    2, STRESS PERIOD   2
 UBDSV4 SAVING "  STREAM LEAKAGE" ON UNIT  70 AT TIME STEP    2, STRESS PERIOD   2



 UBDSV4 SAVING "             MNW" ON UNIT  70 AT TIME STEP    2, STRESS PERIOD   2
 
 
 
 
 
 
 
 
 UBDSV3 SAVING "FARM  NET  RECH." ON UNIT  70 AT TIME STEP    2, STRESS PERIOD   2
 UBDSV4 SAVING " GHOST-NODE FLUX" ON UNIT  70 AT TIME STEP    2, STRESS PERIOD   2
 UBDSV4 SAVING " GHOST-NODE FLUX" ON UNIT  70 AT TIME STEP    2, STRESS PERIOD   2
 UBDSV4 SAVING " GHOST-NODE FLUX" ON UNIT  70 AT TIME STEP    2, STRESS PERIOD   2
1
  VOLUMETRIC BUDGET FOR ENTIRE MODEL AT END OF TIME STEP    2 IN STRESS PERIOD      2
  ------------------------------------------------------------------------------

     CUMULATIVE VOLUMES      L**3       RATES FOR THIS TIME STEP      L**3/T
     ------------------                 ------------------------

           IN:                                      IN:
           ---                                      ---
             STORAGE =     7206793.0000               STORAGE =       23308.3965
       CONSTANT HEAD =           0.0000         CONSTANT HEAD =           0.0000
     HEAD DEP BOUNDS =      280751.0000       HEAD DEP BOUNDS =        5090.8506
      STREAM LEAKAGE =     1404027.8750        STREAM LEAKAGE =       26203.3516
                 MNW =        9733.2637                   MNW =         152.1539
          FARM WELLS =           0.0000            FARM WELLS =           0.0000
    FARM  NET  RECH. =     2182670.0000      FARM  NET  RECH. =       38203.9414
     GHOST-NODE FLUX =       23051.7520       GHOST-NODE FLUX =        1055.7903

            TOTAL IN =    11107027.0000              TOTAL IN =       94014.4766

          OUT:                                     OUT:
          ----                                     ----
             STORAGE =     1650628.2500               STORAGE =       44827.9961
       CONSTANT HEAD =           0.0000         CONSTANT HEAD =           0.0000
     HEAD DEP BOUNDS =     1146103.2500       HEAD DEP BOUNDS =       18600.3828
      STREAM LEAKAGE =      186897.6562        STREAM LEAKAGE =        2607.0081
                 MNW =        9733.2637                   MNW =         152.1539
          FARM WELLS =           0.0000            FARM WELLS =           0.0000
    FARM  NET  RECH. =       40600.9922      FARM  NET  RECH. =        1055.8638
     GHOST-NODE FLUX =     8073067.5000       GHOST-NODE FLUX =       26771.0820

           TOTAL OUT =    11107031.0000             TOTAL OUT =       94014.5000

            IN - OUT =          -4.0000              IN - OUT =      -2.3438E-02

 PERCENT DISCREPANCY =          -0.00     PERCENT DISCREPANCY =          -0.00






          TIME SUMMARY AT END OF TIME STEP     2 IN STRESS PERIOD      2
                    SECONDS     MINUTES      HOURS       DAYS        YEARS
                    -----------------------------------------------------------
   TIME STEP LENGTH 1.31414E+06  21902.      365.04      15.210     4.16427E-02
 STRESS PERIOD TIME 2.62829E+06  43805.      730.08      30.420     8.32854E-02
         TOTAL TIME 5.25658E+06  87610.      1460.2      60.840     0.16657    
1
1
                            STRESS PERIOD NO.      3, LENGTH =   30.42000    
                            -----------------------------------------------

                              NUMBER OF TIME STEPS =     2

                               MULTIPLIER FOR DELT =     1.000

                            INITIAL TIME STEP SIZE =   15.21000    

 REUSING NON-PARAMETER GHB CELLS FROM LAST STRESS PERIOD

     92 GHB CELLS

 REUSING STREAM SEGMENT DATA FROM LAST STRESS PERIOD

 REUSING MNW7  FROM LAST STRESS PERIOD

 Parameter:  WELLS1
 WELL NO. LAYER    ROW    COL  F-WELL ID    FARM ID         QMAX         QMAXRESET       
 ----------------------------------------------------------------------------------------
       1      1      5      6          1          1      5.0000E+03              0
       2      1      8      7          2          1      5.0000E+03              0
       3      1      8      9          3          1      5.0000E+03              0
       4      1      5      9          4          2      3.0000E+03              0
       5      1      6     10          5          2      2.0000E+03              0
       6      1      7     11          6          2      1.0000E+03              0
       7      1     18      3          7          3      2.0000E+03              0
       8      1     21      3          8          3      4.0000E+03              0
       9      1     18     19          9          4      3.0000E+03              0
      10      1     21     19         10          4      5.0000E+03              0
      11      0      6      2        -11          5      5.0000E+03              1
      12      0      8      2        -12          5      5.0000E+03              1
      13      0     10      2        -13          5      5.0000E+03              1
      14      0      3     19        -14          6      1.0000E+04              1
      15      0      6     17        -15          6      6.0000E+03              1

 NUMBER OF ACTIVE FARM WELLS:       15

 THE SINGLE LAYER FMP- OR MNW- WELL IN ROW      8 AND COLUMN      7 IS LOCATED IN AN INACTIVE CELL (IBOUND=0) AND HAS BEEN EXCLUDED FROM THE TOTAL MAXIMUM CAPACITY PER FARM

 THE SINGLE LAYER FMP- OR MNW- WELL IN ROW      8 AND COLUMN      9 IS LOCATED IN AN INACTIVE CELL (IBOUND=0) AND HAS BEEN EXCLUDED FROM THE TOTAL MAXIMUM CAPACITY PER FARM

 THE SINGLE LAYER FMP- OR MNW- WELL IN ROW      6 AND COLUMN     10 IS LOCATED IN AN INACTIVE CELL (IBOUND=0) AND HAS BEEN EXCLUDED FROM THE TOTAL MAXIMUM CAPACITY PER FARM

 THE SINGLE LAYER FMP- OR MNW- WELL IN ROW      7 AND COLUMN     11 IS LOCATED IN AN INACTIVE CELL (IBOUND=0) AND HAS BEEN EXCLUDED FROM THE TOTAL MAXIMUM CAPACITY PER FARM

 FARM-ID  NUMBER OF WELLS PER FARM  TOTAL MAX.CAPACITY PER FARM
       1                         1                    5000.0000
       2                         1                    3000.0000
       3                         2                    6000.0000
       4                         2                    8000.0000
       5                         3                   15000.0000
       6                         2                   16000.0000
       7                         0                       0.0000
       8                         0                       0.0000

 READING LIST ON UNIT   20 WITH FILE NAME: C:\MF_OWHM_Release_Package\MF_OWHM_v1_0\examples\test-run-owhm-lgr\fmp-lgr-nwt\DATA_FMP\OFE.in
 LIST SCALING FACTOR= 0.70000    
 (THE SCALE FACTOR WAS APPLIED TO FIELDS   2 -   7)

 Reading list on unit   30

 Reading list on unit   40

  REF. EVAPOTRANSPIRATION =  2.890000E-03

 READING LIST ON UNIT   50 WITH FILE NAME: C:\MF_OWHM_Release_Package\MF_OWHM_v1_0\examples\test-run-owhm-lgr\fmp-lgr-nwt\DATA_FMP\FTE.in

Transpiratory and Evaporative Fractions of Crop Consumptive Use
    % Transpiration % Evap. for Precip. % Evap. for Irrig.
    1          0.221          0.779          0.500
    2          0.860          0.140          0.140
    3          0.000          1.000          1.000
    4          0.125          0.875          0.875
    5          0.835          0.165          0.000
    6          0.600          0.400          0.000

 READING LIST ON UNIT   60 WITH FILE NAME: C:\MF_OWHM_Release_Package\MF_OWHM_v1_0\examples\test-run-owhm-lgr\fmp-lgr-nwt\DATA_FMP\INEFFSW.in

FRACTIONS OF IN-EFFICIENT LOSSES TO SW-RUNOFF FROM 
     PRECIPITATION:  IRRIGATION:
    1          0.500          0.600
    2          0.400          0.300
    3          0.600          0.500
    4          0.700          0.600
    5          0.500          0.000
    6          0.300          0.000

       PRECIPITATION FLUX =  1.840000E-03

 OPENING FILE WITH FILENAME: ./DATA_FMP/NRDV.in
 AND UNIT NUMBER: -149
 READING SCALE FACTOR LIST ON UNIT   80 ASSOCIATED WITH FILE: C:\MF_OWHM_Release_Package\MF_OWHM_v1_0\examples\test-run-owhm-lgr\fmp-lgr-nwt\DATA_FMP\NRDV.in
 FIELD     SCALE FACTOR
     1       1.0000    
     2       3.0000    
     3       1.0000    
     4       1.0000    

UNRANKED LIST OF NON-ROUTED DELIVERIES TO FARMS [L3]:
TYPE:             1

FARM-ID  VOLUME:
      1   4.500E+04
      2   4.500E+04
      3   6.000E+04
      4   3.000E+04
      5   3.000E+04
      6   6.000E+04
      7   0.000E+00
      8   0.000E+00

FARM-ID  PRIORITY RANK OF NRD-TYPE:
      1           1
      2           1
      3           1
      4           1
      5           1
      6           1
      7           1
      8           1

FARM-ID  USE-FLAG:
         0 = SUFFICIENT USE
         1 = ABSOLUTE USE (RECHARGE SURPLUS BACK INTO CANAL)
         2 = ABSOLUTE USE (INJECT SURPLUS INTO FARM-WELLS)
      1           0
      2           0
      3           0
      4           0
      5           0
      6           0
      7           0
      8           0

LIST OF NON-ROUTED DELIVERIES IN RANKED SEQUENCE [L3/T]:

FARM-ID  RATE:
      1   1.479E+03
      2   1.479E+03
      3   1.972E+03
      4   9.862E+02
      5   9.862E+02
      6   1.972E+03
      7   0.000E+00
      8   0.000E+00

FARM-ID  USE-FLAG:
         0 = SUFFICIENT USE
         1 = ABSOLUTE USE (RECHARGE SURPLUS BACK INTO CANAL)
         2 = ABSOLUTE USE (INJECT SURPLUS INTO FARM-WELLS)
      1           0
      2           0
      3           0
      4           0
      5           0
      6           0
      7           0
      8           0

SURFACE-WATER FARM ALLOTMENT HEIGHT [L]:   0.050
 
 SOLVING FOR HEAD 
                                                   Max.-Head-Change                        Max.-Flux-Residual
  Residual-Control   Outer-Iter.   Inner-Iter.     Column Row Layer    Max.-Head-Change    Column Row Layer    Max.-Flux-Residual            L2-New               L2-Old           Solver-Max-Delh
          0                 1           9             9    9     1       0.1445098234E+01       9    9    1       0.1416698968E+04      0.4968380604E+04      0.9786491271E-01      0.1445098234E+01
          0                 2           8             9   10     1       0.1540477844E+01       9   10    1       0.1768605176E+04      0.3314691139E+04      0.4968380604E+04      0.1540477844E+01
          0                 3           7            12   16     1       0.1718313650E+00      12   16    1       0.5729254640E+03      0.8627674772E+03      0.3314691139E+04      0.1718313650E+00
          0                 4           6            12   16     1      -0.2195101017E-01      11   16    1      -0.7321953068E+02      0.1010467639E+03      0.8627674772E+03     -0.2195101017E-01
          0                 5           5            12   16     1      -0.1262037470E-01      12   16    1      -0.3619158408E+02      0.4017539555E+02      0.1010467639E+03     -0.1262037470E-01
          0                 6           5            12   16     1      -0.4833248727E-02      12   16    1      -0.1434376230E+02      0.1494771152E+02      0.4017539555E+02     -0.4833248727E-02
          0                 7           4            12   16     1      -0.1628488813E-02      12   16    1      -0.4899443726E+01      0.5037418236E+01      0.1494771152E+02     -0.1628488813E-02
          0                 8           3            12   16     1      -0.5178487911E-03      12   16    1      -0.1569173423E+01      0.1609281863E+01      0.5037418236E+01     -0.5178487911E-03
          0                 9           3            12   16     1      -0.1597207752E-03      12   16    1      -0.4861513742E+00      0.4993480552E+00      0.1609281863E+01     -0.1597207752E-03
          0                10           2            12   16     1      -0.4894886369E-04      12   16    1      -0.1480282978E+00      0.1534587925E+00      0.4993480552E+00     -0.4894886369E-04

    ------------------------------------------------
       NWT REQUIRED           10 OUTER ITERATIONS 
       AND A TOTAL OF         52 INNER ITERATIONS.
    ------------------------------------------------
                                                   Max.-Head-Change                        Max.-Flux-Residual
  Residual-Control   Outer-Iter.   Inner-Iter.     Column Row Layer    Max.-Head-Change    Column Row Layer    Max.-Flux-Residual            L2-New               L2-Old           Solver-Max-Delh
          0                 1           8             9    5     1       0.6925397948E+00       9    9    1       0.8381181418E+03      0.2059536512E+04      0.1534587925E+00      0.6925397948E+00
          0                 2           7             9    5     1      -0.6096056188E-01       9    9    1      -0.8498676331E+02      0.2149728839E+03      0.2059536512E+04     -0.6096056188E-01
          0                 3           5             9    5     1      -0.3062202726E-02      12   11    1       0.8588856958E+01      0.1539868620E+02      0.2149728839E+03     -0.3062202726E-02
          0                 4           4             2    8     3      -0.1615312777E-03      12   11    1       0.4291758002E+00      0.9638460772E+00      0.1539868620E+02     -0.1615312777E-03
          0                 5           3             2    8     3      -0.4859804156E-04       2    8    1      -0.1113289895E+00      0.1796628686E+00      0.9638460772E+00     -0.4859804156E-04

    ------------------------------------------------
       NWT REQUIRED            5 OUTER ITERATIONS 
       AND A TOTAL OF         27 INNER ITERATIONS.
    ------------------------------------------------
                                                   Max.-Head-Change                        Max.-Flux-Residual
  Residual-Control   Outer-Iter.   Inner-Iter.     Column Row Layer    Max.-Head-Change    Column Row Layer    Max.-Flux-Residual            L2-New               L2-Old           Solver-Max-Delh
          0                 1           7             9    5     2       0.2521003501E+00       9    5    1       0.1922002351E+03      0.5680188862E+03      0.1796628686E+00      0.2521003501E+00
          0                 2           6             9    5     2      -0.2183004609E-01      12   16    1       0.2457354688E+02      0.6243786270E+02      0.5680188862E+03     -0.2183004609E-01
          0                 3           4             9    5     2      -0.1092963086E-02       9    5    1      -0.9759922294E+00      0.3186192195E+01      0.6243786270E+02     -0.1092963086E-02
          0                 4           3             2    8     3      -0.7684220800E-04       2    6    1      -0.1682429424E+00      0.3158859422E+00      0.3186192195E+01     -0.7684220800E-04

    ------------------------------------------------
       NWT REQUIRED            4 OUTER ITERATIONS 
       AND A TOTAL OF         20 INNER ITERATIONS.
    ------------------------------------------------
                                                   Max.-Head-Change                        Max.-Flux-Residual
  Residual-Control   Outer-Iter.   Inner-Iter.     Column Row Layer    Max.-Head-Change    Column Row Layer    Max.-Flux-Residual            L2-New               L2-Old           Solver-Max-Delh
          0                 1           7             9    9     1      -0.1686215495E+00       9    9    1      -0.1897230884E+03      0.2591842344E+03      0.3158859422E+00     -0.1686215495E+00
          0                 2           5             9    9     1       0.1451289592E-01       9    9    1       0.1882992668E+02      0.2740514062E+02      0.2591842344E+03      0.1451289592E-01
          0                 3           4             9    9     1       0.7248453372E-03       9    9    1       0.9402917953E+00      0.1361319508E+01      0.2740514062E+02      0.7248453372E-03
          0                 4           3             9    9     1       0.3643955634E-04       2    6    1      -0.5894469598E-01      0.1202325522E+00      0.1361319508E+01      0.3643955634E-04

    ------------------------------------------------
       NWT REQUIRED            4 OUTER ITERATIONS 
       AND A TOTAL OF         19 INNER ITERATIONS.
    ------------------------------------------------
                                                   Max.-Head-Change                        Max.-Flux-Residual
  Residual-Control   Outer-Iter.   Inner-Iter.     Column Row Layer    Max.-Head-Change    Column Row Layer    Max.-Flux-Residual            L2-New               L2-Old           Solver-Max-Delh
          0                 1           6             9    9     1      -0.1349823331E+00       9    9    1      -0.1440136139E+03      0.1637191816E+03      0.1202325522E+00     -0.1349823331E+00
          0                 2           5             9    9     1       0.1161941143E-01       9    9    1       0.1430758846E+02      0.1644085549E+02      0.1637191816E+03      0.1161941143E-01
          0                 3           3             9    9     1       0.5805072599E-03       9    9    1       0.7145892022E+00      0.8212846391E+00      0.1644085549E+02      0.5805072599E-03
          0                 4           2             9    9     1       0.2922231461E-04       9    9    1       0.3602328568E-01      0.4880735019E-01      0.8212846391E+00      0.2922231461E-04

    ------------------------------------------------
       NWT REQUIRED            4 OUTER ITERATIONS 
       AND A TOTAL OF         16 INNER ITERATIONS.
    ------------------------------------------------
                                                   Max.-Head-Change                        Max.-Flux-Residual
  Residual-Control   Outer-Iter.   Inner-Iter.     Column Row Layer    Max.-Head-Change    Column Row Layer    Max.-Flux-Residual            L2-New               L2-Old           Solver-Max-Delh
          0                 1           6             9    9     1      -0.5943882833E-01       9    9    1      -0.6281207434E+02      0.9216272853E+02      0.4880735019E-01     -0.5943882833E-01
          0                 2           5             9    9     1       0.5125434077E-02       9    9    1       0.6263270445E+01      0.9202740266E+01      0.9216272853E+02      0.5125434077E-02
          0                 3           3             9    9     1       0.2559994040E-03       9    9    1       0.3127870990E+00      0.4616138730E+00      0.9202740266E+01      0.2559994040E-03
          0                 4           2             9    9     1       0.1272080950E-04       9    9    1       0.1564131168E-01      0.3275035418E-01      0.4616138730E+00      0.1272080950E-04

    ------------------------------------------------
       NWT REQUIRED            4 OUTER ITERATIONS 
       AND A TOTAL OF         16 INNER ITERATIONS.
    ------------------------------------------------
                                                   Max.-Head-Change                        Max.-Flux-Residual
  Residual-Control   Outer-Iter.   Inner-Iter.     Column Row Layer    Max.-Head-Change    Column Row Layer    Max.-Flux-Residual            L2-New               L2-Old           Solver-Max-Delh
          0                 1           6             9    5     1      -0.2316845835E-01       9    5    1      -0.2138901745E+02      0.5183941496E+02      0.3275035418E-01     -0.2316845835E-01
          0                 2           5             9    5     1       0.1999263200E-02       9    5    1       0.2135665531E+01      0.5233584009E+01      0.5183941496E+02      0.1999263200E-02
          0                 3           3             9    5     1       0.9998685799E-04       9    5    1       0.1065721697E+00      0.2641191169E+00      0.5233584009E+01      0.9998685799E-04

    ------------------------------------------------
       NWT REQUIRED            3 OUTER ITERATIONS 
       AND A TOTAL OF         14 INNER ITERATIONS.
    ------------------------------------------------
                                                   Max.-Head-Change                        Max.-Flux-Residual
  Residual-Control   Outer-Iter.   Inner-Iter.     Column Row Layer    Max.-Head-Change    Column Row Layer    Max.-Flux-Residual            L2-New               L2-Old           Solver-Max-Delh
          0                 1           6             9    5     1      -0.1324452998E-01       9    5    1      -0.1189895732E+02      0.3059271523E+02      0.2641191169E+00     -0.1324452998E-01
          0                 2           4             9    5     1       0.1142921961E-02       9    5    1       0.1188861910E+01      0.3114135867E+01      0.3059271523E+02      0.1142921961E-02
          0                 3           3             9    5     1       0.5736400909E-04       9    5    1       0.5916413662E-01      0.1575929170E+00      0.3114135867E+01      0.5736400909E-04

    ------------------------------------------------
       NWT REQUIRED            3 OUTER ITERATIONS 
       AND A TOTAL OF         13 INNER ITERATIONS.
    ------------------------------------------------
                                                   Max.-Head-Change                        Max.-Flux-Residual
  Residual-Control   Outer-Iter.   Inner-Iter.     Column Row Layer    Max.-Head-Change    Column Row Layer    Max.-Flux-Residual            L2-New               L2-Old           Solver-Max-Delh
          0                 1           5             9    5     1      -0.6117088162E-02       9    9    1       0.5990997941E+01      0.1637813014E+02      0.1575929170E+00     -0.6117088162E-02
          0                 2           4             9    5     1       0.5279926898E-03       9    9    1      -0.5990753702E+00      0.1671454439E+01      0.1637813014E+02      0.5279926898E-03
          0                 3           3             9    5     1       0.2655658054E-04       9    9    1      -0.2980848184E-01      0.8761087982E-01      0.1671454439E+01      0.2655658054E-04

    ------------------------------------------------
       NWT REQUIRED            3 OUTER ITERATIONS 
       AND A TOTAL OF         12 INNER ITERATIONS.
    ------------------------------------------------
                                                   Max.-Head-Change                        Max.-Flux-Residual
  Residual-Control   Outer-Iter.   Inner-Iter.     Column Row Layer    Max.-Head-Change    Column Row Layer    Max.-Flux-Residual            L2-New               L2-Old           Solver-Max-Delh
          0                 1           5             6    7     2      -0.2637848590E-02       9    9    1       0.3220688403E+01      0.7226064743E+01      0.8761087982E-01     -0.2637848590E-02
          0                 2           4             6    7     2       0.2274686768E-03       9    9    1      -0.3221425071E+00      0.7394053472E+00      0.7226064743E+01      0.2274686768E-03
          0                 3           2             6    7     2       0.1165287098E-04       9    9    1      -0.1631872592E-01      0.4211167342E-01      0.7394053472E+00      0.1165287098E-04

    ------------------------------------------------
       NWT REQUIRED            3 OUTER ITERATIONS 
       AND A TOTAL OF         11 INNER ITERATIONS.
    ------------------------------------------------
                                                   Max.-Head-Change                        Max.-Flux-Residual
  Residual-Control   Outer-Iter.   Inner-Iter.     Column Row Layer    Max.-Head-Change    Column Row Layer    Max.-Flux-Residual            L2-New               L2-Old           Solver-Max-Delh
          0                 1           4             9    9     3      -0.1183398246E-02       6    6    1      -0.1017629423E+01      0.2711638613E+01      0.4211167342E-01     -0.1183398246E-02
          0                 2           3             9    9     3       0.1016488488E-03       6    6    1       0.1017455758E+00      0.2791455536E+00      0.2711638613E+01      0.1016488488E-03
          0                 3           2             9    9     3       0.5286529445E-05      17   10    1       0.1147339842E-01      0.2669658910E-01      0.2791455536E+00      0.5286529445E-05

    ------------------------------------------------
       NWT REQUIRED            3 OUTER ITERATIONS 
       AND A TOTAL OF          9 INNER ITERATIONS.
    ------------------------------------------------
                                                   Max.-Head-Change                        Max.-Flux-Residual
  Residual-Control   Outer-Iter.   Inner-Iter.     Column Row Layer    Max.-Head-Change    Column Row Layer    Max.-Flux-Residual            L2-New               L2-Old           Solver-Max-Delh
          0                 1           4             9    9     3      -0.7855598242E-03       7    9    1      -0.5979603003E+00      0.1281216448E+01      0.2669658910E-01     -0.7855598242E-03
          0                 2           3             9    9     3       0.6770305780E-04       7    9    1       0.5989474751E-01      0.1318472463E+00      0.1281216448E+01      0.6770305780E-04

    ------------------------------------------------
       NWT REQUIRED            2 OUTER ITERATIONS 
       AND A TOTAL OF          7 INNER ITERATIONS.
    ------------------------------------------------
                                                   Max.-Head-Change                        Max.-Flux-Residual
  Residual-Control   Outer-Iter.   Inner-Iter.     Column Row Layer    Max.-Head-Change    Column Row Layer    Max.-Flux-Residual            L2-New               L2-Old           Solver-Max-Delh
          0                 1           4             9    9     2      -0.4766336378E-03       7    9    1      -0.3175083270E+00      0.8169295000E+00      0.1318472463E+00     -0.4766336378E-03
          0                 2           2             9    9     2       0.4073799003E-04       7    9    1       0.3167019435E-01      0.8360779118E-01      0.8169295000E+00      0.4073799003E-04

    ------------------------------------------------
       NWT REQUIRED            2 OUTER ITERATIONS 
       AND A TOTAL OF          6 INNER ITERATIONS.
    ------------------------------------------------

 OUTPUT CONTROL FOR STRESS PERIOD      3   TIME STEP     1
    SAVE BUDGET
 UBDSV1 SAVING "         STORAGE" ON UNIT  70 AT TIME STEP    1, STRESS PERIOD   3
 UBDSV2 SAVING "   CONSTANT HEAD" ON UNIT  70 AT TIME STEP    1, STRESS PERIOD   3
 UBDSV1 SAVING "FLOW RIGHT FACE " ON UNIT  70 AT TIME STEP    1, STRESS PERIOD   3
 UBDSV1 SAVING "FLOW FRONT FACE " ON UNIT  70 AT TIME STEP    1, STRESS PERIOD   3
 UBDSV1 SAVING "FLOW LOWER FACE " ON UNIT  70 AT TIME STEP    1, STRESS PERIOD   3
 UBDSV4 SAVING " HEAD DEP BOUNDS" ON UNIT  70 AT TIME STEP    1, STRESS PERIOD   3
 UBDSV4 SAVING "  STREAM LEAKAGE" ON UNIT  70 AT TIME STEP    1, STRESS PERIOD   3



 UBDSV4 SAVING "             MNW" ON UNIT  70 AT TIME STEP    1, STRESS PERIOD   3
 
 
 
 
 
 
 
 
 UBDSV3 SAVING "FARM  NET  RECH." ON UNIT  70 AT TIME STEP    1, STRESS PERIOD   3
 UBDSV4 SAVING " GHOST-NODE FLUX" ON UNIT  70 AT TIME STEP    1, STRESS PERIOD   3
 UBDSV4 SAVING " GHOST-NODE FLUX" ON UNIT  70 AT TIME STEP    1, STRESS PERIOD   3
 UBDSV4 SAVING " GHOST-NODE FLUX" ON UNIT  70 AT TIME STEP    1, STRESS PERIOD   3
 
 SOLVING FOR HEAD 
                                                   Max.-Head-Change                        Max.-Flux-Residual
  Residual-Control   Outer-Iter.   Inner-Iter.     Column Row Layer    Max.-Head-Change    Column Row Layer    Max.-Flux-Residual            L2-New               L2-Old           Solver-Max-Delh
          0                 1           8             9    9     1       0.1965973275E+01       9   10    1       0.1168636380E+04      0.3892520110E+04      0.8360779118E-01      0.1965973275E+01
          0                 2           7             9    9     1      -0.1775316901E+00       9   10    1      -0.1264203711E+03      0.4252944932E+03      0.3892520110E+04     -0.1775316901E+00
          0                 3           6            13   16     1       0.1438783688E-01      13   16    1       0.3413751505E+02      0.4668359377E+02      0.4252944932E+03      0.1438783688E-01
          0                 4           5             2    6     3       0.1832102099E-02       2    6    1       0.4520708636E+01      0.8344355388E+01      0.4668359377E+02      0.1832102099E-02
          0                 5           4             2    8     3       0.5606450029E-03       2    6    1       0.1335605987E+01      0.2275769807E+01      0.8344355388E+01      0.5606450029E-03
          0                 6           3             2    8     3       0.1762595293E-03       2    6    1       0.3932945580E+00      0.6829201526E+00      0.2275769807E+01      0.1762595293E-03
          0                 7           3             2    8     3       0.5526426291E-04       2    8    1       0.1230874790E+00      0.2077919701E+00      0.6829201526E+00      0.5526426291E-04

    ------------------------------------------------
       NWT REQUIRED            7 OUTER ITERATIONS 
       AND A TOTAL OF         36 INNER ITERATIONS.
    ------------------------------------------------
                                                   Max.-Head-Change                        Max.-Flux-Residual
  Residual-Control   Outer-Iter.   Inner-Iter.     Column Row Layer    Max.-Head-Change    Column Row Layer    Max.-Flux-Residual            L2-New               L2-Old           Solver-Max-Delh
          0                 1           8             9    5     1       0.3969372335E+00      12   10    1      -0.6111091242E+03      0.1463405042E+04      0.2077919701E+00      0.3969372335E+00
          0                 2           6             9    5     1      -0.3464941012E-01      12   10    1       0.5986852676E+02      0.1449772544E+03      0.1463405042E+04     -0.3464941012E-01
          0                 3           5             9    5     1      -0.1737516294E-02      12   10    1       0.2984481767E+01      0.7289788359E+01      0.1449772544E+03     -0.1737516294E-02
          0                 4           3             2    6     3      -0.9253261936E-04       2    6    1      -0.2156678670E+00      0.4742476838E+00      0.7289788359E+01     -0.9253261936E-04

    ------------------------------------------------
       NWT REQUIRED            4 OUTER ITERATIONS 
       AND A TOTAL OF         22 INNER ITERATIONS.
    ------------------------------------------------
                                                   Max.-Head-Change                        Max.-Flux-Residual
  Residual-Control   Outer-Iter.   Inner-Iter.     Column Row Layer    Max.-Head-Change    Column Row Layer    Max.-Flux-Residual            L2-New               L2-Old           Solver-Max-Delh
          0                 1           7             9    5     2       0.1339993218E+00       6    8    1       0.1039402446E+03      0.3136488994E+03      0.4742476838E+00      0.1339993218E+00
          0                 2           6             9    5     2      -0.1158834091E-01       6    8    1      -0.1043078567E+02      0.3195609312E+02      0.3136488994E+03     -0.1158834091E-01
          0                 3           4             9    5     2      -0.5802714374E-03       6    8    1      -0.5216759334E+00      0.1648339595E+01      0.3195609312E+02     -0.5802714374E-03
          0                 4           3             2    8     3      -0.4403880502E-04       2    6    1      -0.9818934998E-01      0.1730280825E+00      0.1648339595E+01     -0.4403880502E-04

    ------------------------------------------------
       NWT REQUIRED            4 OUTER ITERATIONS 
       AND A TOTAL OF         20 INNER ITERATIONS.
    ------------------------------------------------
                                                   Max.-Head-Change                        Max.-Flux-Residual
  Residual-Control   Outer-Iter.   Inner-Iter.     Column Row Layer    Max.-Head-Change    Column Row Layer    Max.-Flux-Residual            L2-New               L2-Old           Solver-Max-Delh
          0                 1           6             9    9     1      -0.1070880045E+00       9    9    1      -0.1128835821E+03      0.1444619181E+03      0.1730280825E+00     -0.1070880045E+00
          0                 2           5             9    9     1       0.9225210401E-02       9    9    1       0.1122925787E+02      0.1445737489E+02      0.1444619181E+03      0.9225210401E-02
          0                 3           4             9    9     1       0.4605373145E-03       9    9    1       0.5607295586E+00      0.7330755045E+00      0.1445737489E+02      0.4605373145E-03
          0                 4           2             9    9     1       0.2340652687E-04       2    6    1      -0.3034435736E-01      0.6046596816E-01      0.7330755045E+00      0.2340652687E-04

    ------------------------------------------------
       NWT REQUIRED            4 OUTER ITERATIONS 
       AND A TOTAL OF         17 INNER ITERATIONS.
    ------------------------------------------------
                                                   Max.-Head-Change                        Max.-Flux-Residual
  Residual-Control   Outer-Iter.   Inner-Iter.     Column Row Layer    Max.-Head-Change    Column Row Layer    Max.-Flux-Residual            L2-New               L2-Old           Solver-Max-Delh
          0                 1           6             9    9     1      -0.7373704967E-01       9    9    1      -0.7602476636E+02      0.9290566363E+02      0.6046596816E-01     -0.7373704967E-01
          0                 2           5             9    9     1       0.6356024199E-02       9    9    1       0.7574529962E+01      0.9271497162E+01      0.9290566363E+02      0.6356024199E-02
          0                 3           3             9    9     1       0.3176445996E-03       9    9    1       0.3783647675E+00      0.4642633091E+00      0.9271497162E+01      0.3176445996E-03
          0                 4           2             9    9     1       0.1598517949E-04       9    9    1       0.1930224683E-01      0.3113073023E-01      0.4642633091E+00      0.1598517949E-04

    ------------------------------------------------
       NWT REQUIRED            4 OUTER ITERATIONS 
       AND A TOTAL OF         16 INNER ITERATIONS.
    ------------------------------------------------
                                                   Max.-Head-Change                        Max.-Flux-Residual
  Residual-Control   Outer-Iter.   Inner-Iter.     Column Row Layer    Max.-Head-Change    Column Row Layer    Max.-Flux-Residual            L2-New               L2-Old           Solver-Max-Delh
          0                 1           6             9    9     1      -0.2915616947E-01       9    9    1      -0.2972420725E+02      0.5641969547E+02      0.3113073023E-01     -0.2915616947E-01
          0                 2           5             9    9     1       0.2515680722E-02       9    9    1       0.2968207949E+01      0.5662857026E+01      0.5641969547E+02      0.2515680722E-02
          0                 3           3             9    9     1       0.1256508195E-03       9    9    1       0.1482161429E+00      0.2858526120E+00      0.5662857026E+01      0.1256508195E-03
          0                 4           2             9    9     1       0.6426932854E-05      19   21    1      -0.1519585057E-01      0.3036014837E-01      0.2858526120E+00      0.6426932854E-05

    ------------------------------------------------
       NWT REQUIRED            4 OUTER ITERATIONS 
       AND A TOTAL OF         16 INNER ITERATIONS.
    ------------------------------------------------
                                                   Max.-Head-Change                        Max.-Flux-Residual
  Residual-Control   Outer-Iter.   Inner-Iter.     Column Row Layer    Max.-Head-Change    Column Row Layer    Max.-Flux-Residual            L2-New               L2-Old           Solver-Max-Delh
          0                 1           6             9    5     1      -0.1498082776E-01       9    5    1      -0.1349565972E+02      0.3415658707E+02      0.3036014837E-01     -0.1498082776E-01
          0                 2           4             9    5     1       0.1293277982E-02       9    5    1       0.1348559722E+01      0.3442903586E+01      0.3415658707E+02      0.1293277982E-02
          0                 3           3             9    5     1       0.6452083609E-04       9    5    1       0.6705574217E-01      0.1753135182E+00      0.3442903586E+01      0.6452083609E-04

    ------------------------------------------------
       NWT REQUIRED            3 OUTER ITERATIONS 
       AND A TOTAL OF         13 INNER ITERATIONS.
    ------------------------------------------------
                                                   Max.-Head-Change                        Max.-Flux-Residual
  Residual-Control   Outer-Iter.   Inner-Iter.     Column Row Layer    Max.-Head-Change    Column Row Layer    Max.-Flux-Residual            L2-New               L2-Old           Solver-Max-Delh
          0                 1           5             9    5     1      -0.8070677705E-02       9    5    1      -0.7053550251E+01      0.1981325863E+02      0.1753135182E+00     -0.8070677705E-02
          0                 2           4             9    5     1       0.6964813954E-03       9    5    1       0.7045333954E+00      0.1999089736E+01      0.1981325863E+02      0.6964813954E-03
          0                 3           3             9    5     1       0.3511873961E-04       9    5    1       0.3563663783E-01      0.1039391618E+00      0.1999089736E+01      0.3511873961E-04

    ------------------------------------------------
       NWT REQUIRED            3 OUTER ITERATIONS 
       AND A TOTAL OF         12 INNER ITERATIONS.
    ------------------------------------------------
                                                   Max.-Head-Change                        Max.-Flux-Residual
  Residual-Control   Outer-Iter.   Inner-Iter.     Column Row Layer    Max.-Head-Change    Column Row Layer    Max.-Flux-Residual            L2-New               L2-Old           Solver-Max-Delh
          0                 1           5             9    5     1      -0.3512931721E-02       9    9    1       0.3213930155E+01      0.9985859820E+01      0.1039391618E+00     -0.3512931721E-02
          0                 2           4             9    5     1       0.3033477958E-03       9    9    1      -0.3214932599E+00      0.1008233887E+01      0.9985859820E+01      0.3033477958E-03
          0                 3           2             9    5     1       0.1517212117E-04       6    7    1       0.1625531088E-01      0.5356127350E-01      0.1008233887E+01      0.1517212117E-04

    ------------------------------------------------
       NWT REQUIRED            3 OUTER ITERATIONS 
       AND A TOTAL OF         11 INNER ITERATIONS.
    ------------------------------------------------
                                                   Max.-Head-Change                        Max.-Flux-Residual
  Residual-Control   Outer-Iter.   Inner-Iter.     Column Row Layer    Max.-Head-Change    Column Row Layer    Max.-Flux-Residual            L2-New               L2-Old           Solver-Max-Delh
          0                 1           5             6    7     2      -0.1591801189E-02       9    9    1       0.1498072398E+01      0.4185849318E+01      0.5356127350E-01     -0.1591801189E-02
          0                 2           3             6    7     2       0.1370982561E-03       9    9    1      -0.1497508289E+00      0.4240685398E+00      0.4185849318E+01      0.1370982561E-03
          0                 3           2             6    7     2       0.6968778413E-05      16   21    1      -0.1017572638E-01      0.2750485908E-01      0.4240685398E+00      0.6968778413E-05

    ------------------------------------------------
       NWT REQUIRED            3 OUTER ITERATIONS 
       AND A TOTAL OF         10 INNER ITERATIONS.
    ------------------------------------------------
                                                   Max.-Head-Change                        Max.-Flux-Residual
  Residual-Control   Outer-Iter.   Inner-Iter.     Column Row Layer    Max.-Head-Change    Column Row Layer    Max.-Flux-Residual            L2-New               L2-Old           Solver-Max-Delh
          0                 1           4             9    9     3      -0.6795417050E-03       6    6    1      -0.6396446999E+00      0.1611210463E+01      0.2750485908E-01     -0.6795417050E-03
          0                 2           3             9    9     3       0.5848002604E-04       6    6    1       0.6414361543E-01      0.1653634614E+00      0.1611210463E+01      0.5848002604E-04

    ------------------------------------------------
       NWT REQUIRED            2 OUTER ITERATIONS 
       AND A TOTAL OF          7 INNER ITERATIONS.
    ------------------------------------------------
                                                   Max.-Head-Change                        Max.-Flux-Residual
  Residual-Control   Outer-Iter.   Inner-Iter.     Column Row Layer    Max.-Head-Change    Column Row Layer    Max.-Flux-Residual            L2-New               L2-Old           Solver-Max-Delh
          0                 1           4             9    9     2      -0.5030259387E-03       7    9    1      -0.3748887817E+00      0.8318991251E+00      0.1653634614E+00     -0.5030259387E-03
          0                 2           2             9    9     2       0.4308938771E-04       7    9    1       0.3765741235E-01      0.8622848858E-01      0.8318991251E+00      0.4308938771E-04

    ------------------------------------------------
       NWT REQUIRED            2 OUTER ITERATIONS 
       AND A TOTAL OF          6 INNER ITERATIONS.
    ------------------------------------------------

 OUTPUT CONTROL FOR STRESS PERIOD      3   TIME STEP     2
    PRINT BUDGET
    SAVE HEAD FOR ALL LAYERS
    SAVE BUDGET
 UBDSV1 SAVING "         STORAGE" ON UNIT  70 AT TIME STEP    2, STRESS PERIOD   3
 UBDSV2 SAVING "   CONSTANT HEAD" ON UNIT  70 AT TIME STEP    2, STRESS PERIOD   3
 UBDSV1 SAVING "FLOW RIGHT FACE " ON UNIT  70 AT TIME STEP    2, STRESS PERIOD   3
 UBDSV1 SAVING "FLOW FRONT FACE " ON UNIT  70 AT TIME STEP    2, STRESS PERIOD   3
 UBDSV1 SAVING "FLOW LOWER FACE " ON UNIT  70 AT TIME STEP    2, STRESS PERIOD   3
 UBDSV4 SAVING " HEAD DEP BOUNDS" ON UNIT  70 AT TIME STEP    2, STRESS PERIOD   3
 UBDSV4 SAVING "  STREAM LEAKAGE" ON UNIT  70 AT TIME STEP    2, STRESS PERIOD   3



 UBDSV4 SAVING "             MNW" ON UNIT  70 AT TIME STEP    2, STRESS PERIOD   3
 
 
 
 
 
 
 
 
 UBDSV3 SAVING "FARM  NET  RECH." ON UNIT  70 AT TIME STEP    2, STRESS PERIOD   3
 UBDSV4 SAVING " GHOST-NODE FLUX" ON UNIT  70 AT TIME STEP    2, STRESS PERIOD   3
 UBDSV4 SAVING " GHOST-NODE FLUX" ON UNIT  70 AT TIME STEP    2, STRESS PERIOD   3
 UBDSV4 SAVING " GHOST-NODE FLUX" ON UNIT  70 AT TIME STEP    2, STRESS PERIOD   3

 HEAD WILL BE SAVED ON UNIT   22 AT END OF TIME STEP     2, STRESS PERIOD      3
1
  VOLUMETRIC BUDGET FOR ENTIRE MODEL AT END OF TIME STEP    2 IN STRESS PERIOD      3
  ------------------------------------------------------------------------------

     CUMULATIVE VOLUMES      L**3       RATES FOR THIS TIME STEP      L**3/T
     ------------------                 ------------------------

           IN:                                      IN:
           ---                                      ---
             STORAGE =     7975380.5000               STORAGE =       20319.5508
       CONSTANT HEAD =           0.0000         CONSTANT HEAD =           0.0000
     HEAD DEP BOUNDS =      452252.2812       HEAD DEP BOUNDS =        5791.6099
      STREAM LEAKAGE =     2027103.3750        STREAM LEAKAGE =       20179.3633
                 MNW =       13758.4385                   MNW =         127.7145
          FARM WELLS =           0.0000            FARM WELLS =           0.0000
    FARM  NET  RECH. =     2480867.2500      FARM  NET  RECH. =        9605.5693
     GHOST-NODE FLUX =       92894.1406       GHOST-NODE FLUX =        2841.2271

            TOTAL IN =    13042255.0000              TOTAL IN =       58865.0352

          OUT:                                     OUT:
          ----                                     ----
             STORAGE =     2354223.0000               STORAGE =       21533.5605
       CONSTANT HEAD =           0.0000         CONSTANT HEAD =           0.0000
     HEAD DEP BOUNDS =     1702277.2500       HEAD DEP BOUNDS =       18189.6484
      STREAM LEAKAGE =      260053.5625        STREAM LEAKAGE =        2329.1196
                 MNW =       13758.4385                   MNW =         127.7145
          FARM WELLS =           0.0000            FARM WELLS =           0.0000
    FARM  NET  RECH. =      215334.5625      FARM  NET  RECH. =        5203.0264
     GHOST-NODE FLUX =     8496613.0000       GHOST-NODE FLUX =       11481.9609

           TOTAL OUT =    13042260.0000             TOTAL OUT =       58865.0352

            IN - OUT =          -5.0000              IN - OUT =           0.0000

 PERCENT DISCREPANCY =          -0.00     PERCENT DISCREPANCY =           0.00






          TIME SUMMARY AT END OF TIME STEP     2 IN STRESS PERIOD      3
                    SECONDS     MINUTES      HOURS       DAYS        YEARS
                    -----------------------------------------------------------
   TIME STEP LENGTH 1.31414E+06  21902.      365.04      15.210     4.16427E-02
 STRESS PERIOD TIME 2.62829E+06  43805.      730.08      30.420     8.32854E-02
         TOTAL TIME 7.88486E+06 1.31414E+05  2190.2      91.260     0.24986    
1
1
                            STRESS PERIOD NO.      4, LENGTH =   30.42000    
                            -----------------------------------------------

                              NUMBER OF TIME STEPS =     2

                               MULTIPLIER FOR DELT =     1.000

                            INITIAL TIME STEP SIZE =   15.21000    

 REUSING NON-PARAMETER GHB CELLS FROM LAST STRESS PERIOD

     92 GHB CELLS

 REUSING STREAM SEGMENT DATA FROM LAST STRESS PERIOD

 REUSING MNW7  FROM LAST STRESS PERIOD

 Parameter:  WELLS1
 WELL NO. LAYER    ROW    COL  F-WELL ID    FARM ID         QMAX         QMAXRESET       
 ----------------------------------------------------------------------------------------
       1      1      5      6          1          1      5.0000E+03              0
       2      1      8      7          2          1      5.0000E+03              0
       3      1      8      9          3          1      5.0000E+03              0
       4      1      5      9          4          2      3.0000E+03              0
       5      1      6     10          5          2      2.0000E+03              0
       6      1      7     11          6          2      1.0000E+03              0
       7      1     18      3          7          3      2.0000E+03              0
       8      1     21      3          8          3      4.0000E+03              0
       9      1     18     19          9          4      3.0000E+03              0
      10      1     21     19         10          4      5.0000E+03              0
      11      0      6      2        -11          5      5.0000E+03              1
      12      0      8      2        -12          5      5.0000E+03              1
      13      0     10      2        -13          5      5.0000E+03              1
      14      0      3     19        -14          6      1.0000E+04              1
      15      0      6     17        -15          6      6.0000E+03              1

 NUMBER OF ACTIVE FARM WELLS:       15

 THE SINGLE LAYER FMP- OR MNW- WELL IN ROW      8 AND COLUMN      7 IS LOCATED IN AN INACTIVE CELL (IBOUND=0) AND HAS BEEN EXCLUDED FROM THE TOTAL MAXIMUM CAPACITY PER FARM

 THE SINGLE LAYER FMP- OR MNW- WELL IN ROW      8 AND COLUMN      9 IS LOCATED IN AN INACTIVE CELL (IBOUND=0) AND HAS BEEN EXCLUDED FROM THE TOTAL MAXIMUM CAPACITY PER FARM

 THE SINGLE LAYER FMP- OR MNW- WELL IN ROW      6 AND COLUMN     10 IS LOCATED IN AN INACTIVE CELL (IBOUND=0) AND HAS BEEN EXCLUDED FROM THE TOTAL MAXIMUM CAPACITY PER FARM

 THE SINGLE LAYER FMP- OR MNW- WELL IN ROW      7 AND COLUMN     11 IS LOCATED IN AN INACTIVE CELL (IBOUND=0) AND HAS BEEN EXCLUDED FROM THE TOTAL MAXIMUM CAPACITY PER FARM

 FARM-ID  NUMBER OF WELLS PER FARM  TOTAL MAX.CAPACITY PER FARM
       1                         1                    5000.0000
       2                         1                    3000.0000
       3                         2                    6000.0000
       4                         2                    8000.0000
       5                         3                   15000.0000
       6                         2                   16000.0000
       7                         0                       0.0000
       8                         0                       0.0000

 READING LIST ON UNIT   20 WITH FILE NAME: C:\MF_OWHM_Release_Package\MF_OWHM_v1_0\examples\test-run-owhm-lgr\fmp-lgr-nwt\DATA_FMP\OFE.in
 LIST SCALING FACTOR= 0.75000    
 (THE SCALE FACTOR WAS APPLIED TO FIELDS   2 -   7)

 Reading list on unit   30

 Reading list on unit   40

  REF. EVAPOTRANSPIRATION =  4.310000E-03

 READING LIST ON UNIT   50 WITH FILE NAME: C:\MF_OWHM_Release_Package\MF_OWHM_v1_0\examples\test-run-owhm-lgr\fmp-lgr-nwt\DATA_FMP\FTE.in

Transpiratory and Evaporative Fractions of Crop Consumptive Use
    % Transpiration % Evap. for Precip. % Evap. for Irrig.
    1          0.485          0.515          0.500
    2          0.908          0.092          0.092
    3          0.000          1.000          1.000
    4          0.125          0.875          0.875
    5          0.887          0.113          0.000
    6          0.700          0.300          0.000

 READING LIST ON UNIT   60 WITH FILE NAME: C:\MF_OWHM_Release_Package\MF_OWHM_v1_0\examples\test-run-owhm-lgr\fmp-lgr-nwt\DATA_FMP\INEFFSW.in

FRACTIONS OF IN-EFFICIENT LOSSES TO SW-RUNOFF FROM 
     PRECIPITATION:  IRRIGATION:
    1          0.500          0.600
    2          0.400          0.300
    3          0.600          0.500
    4          0.700          0.600
    5          0.500          0.000
    6          0.300          0.000

       PRECIPITATION FLUX =  6.100000E-04

 OPENING FILE WITH FILENAME: ./DATA_FMP/NRDV.in
 AND UNIT NUMBER: -150
 READING SCALE FACTOR LIST ON UNIT   80 ASSOCIATED WITH FILE: C:\MF_OWHM_Release_Package\MF_OWHM_v1_0\examples\test-run-owhm-lgr\fmp-lgr-nwt\DATA_FMP\NRDV.in
 FIELD     SCALE FACTOR
     1       1.0000    
     2       4.0000    
     3       1.0000    
     4       1.0000    

UNRANKED LIST OF NON-ROUTED DELIVERIES TO FARMS [L3]:
TYPE:             1

FARM-ID  VOLUME:
      1   6.000E+04
      2   6.000E+04
      3   8.000E+04
      4   4.000E+04
      5   4.000E+04
      6   8.000E+04
      7   0.000E+00
      8   0.000E+00

FARM-ID  PRIORITY RANK OF NRD-TYPE:
      1           1
      2           1
      3           1
      4           1
      5           1
      6           1
      7           1
      8           1

FARM-ID  USE-FLAG:
         0 = SUFFICIENT USE
         1 = ABSOLUTE USE (RECHARGE SURPLUS BACK INTO CANAL)
         2 = ABSOLUTE USE (INJECT SURPLUS INTO FARM-WELLS)
      1           0
      2           0
      3           0
      4           0
      5           0
      6           0
      7           0
      8           0

LIST OF NON-ROUTED DELIVERIES IN RANKED SEQUENCE [L3/T]:

FARM-ID  RATE:
      1   1.972E+03
      2   1.972E+03
      3   2.630E+03
      4   1.315E+03
      5   1.315E+03
      6   2.630E+03
      7   0.000E+00
      8   0.000E+00

FARM-ID  USE-FLAG:
         0 = SUFFICIENT USE
         1 = ABSOLUTE USE (RECHARGE SURPLUS BACK INTO CANAL)
         2 = ABSOLUTE USE (INJECT SURPLUS INTO FARM-WELLS)
      1           0
      2           0
      3           0
      4           0
      5           0
      6           0
      7           0
      8           0

SURFACE-WATER FARM ALLOTMENT HEIGHT [L]:   0.050
 
 SOLVING FOR HEAD 
                                                   Max.-Head-Change                        Max.-Flux-Residual
  Residual-Control   Outer-Iter.   Inner-Iter.     Column Row Layer    Max.-Head-Change    Column Row Layer    Max.-Flux-Residual            L2-New               L2-Old           Solver-Max-Delh
          0                 1           8            12    8     1       0.8216438178E+00       9   10    1      -0.6513085098E+03      0.2914221163E+04      0.8622848858E-01      0.8216438178E+00
          1                 1           0            12    8     1       0.5751506627E+00       6    5    1      -0.6450587378E+04      0.9323704444E+04      0.2914221163E+04      0.8216438178E+00
          2                 1           0            12    8     1       0.4026054570E+00      19    3    2      -0.2536235249E+04      0.6953548036E+04      0.9323704444E+04      0.8216438178E+00
          0                 2           9            19    3     3      -0.9346767928E+01       9    5    1      -0.3644412495E+04      0.7791589787E+04      0.6953548036E+04     -0.9346767928E+01
          0                 3           8            19    3     3      -0.1154634233E+01       9   10    1       0.4861074959E+03      0.1322584056E+04      0.7791589787E+04     -0.1154634233E+01
          0                 4           7            19    3     3      -0.1452159702E+00      14   16    1       0.2302945618E+03      0.3019575643E+03      0.1322584056E+04     -0.1452159702E+00
          0                 5           6            15   16     1       0.3677137757E-01      15   16    1       0.1444267093E+03      0.1715182162E+03      0.3019575643E+03      0.3677137757E-01
          0                 6           5            15   16     1       0.3019823503E-02      14   16    1      -0.1532833744E+02      0.2321340673E+02      0.1715182162E+03      0.3019823503E-02
          0                 7           4            14   16     1      -0.5885530675E-03      14   16    1      -0.2821010211E+01      0.3536154397E+01      0.2321340673E+02     -0.5885530675E-03
          0                 8           3            15   16     1      -0.4002013104E-03      15   16    1      -0.1484959646E+01      0.1596520871E+01      0.3536154397E+01     -0.4002013104E-03
                                                   Max.-Head-Change                        Max.-Flux-Residual
  Residual-Control   Outer-Iter.   Inner-Iter.     Column Row Layer    Max.-Head-Change    Column Row Layer    Max.-Flux-Residual            L2-New               L2-Old           Solver-Max-Delh
          0                 9           3            15   16     1      -0.1961499326E-03      15   16    1      -0.7823222943E+00      0.7909753118E+00      0.1596520871E+01     -0.1961499326E-03
          0                10           2            15   16     1      -0.8018221557E-04      15   16    1      -0.3317097083E+00      0.3385355280E+00      0.7909753118E+00     -0.8018221557E-04

    ------------------------------------------------
       NWT REQUIRED           10 OUTER ITERATIONS 
       AND A TOTAL OF         55 INNER ITERATIONS.
    ------------------------------------------------
                                                   Max.-Head-Change                        Max.-Flux-Residual
  Residual-Control   Outer-Iter.   Inner-Iter.     Column Row Layer    Max.-Head-Change    Column Row Layer    Max.-Flux-Residual            L2-New               L2-Old           Solver-Max-Delh
          0                 1           9             6    5     1      -0.5350259404E+01       6    5    1      -0.1172362213E+05      0.1189300716E+05      0.3385355280E+00     -0.5350259404E+01
          0                 2           7             6    5     1       0.3829426350E+00       6    5    1       0.8650711507E+03      0.8909677764E+03      0.1189300716E+05      0.3829426350E+00
          0                 3           6             6    5     1       0.1876551560E-01       6    5    1       0.4180935838E+02      0.4601537379E+02      0.8909677764E+03      0.1876551560E-01
          0                 4           4            19    3     3       0.1576361693E-02       2    6    1       0.2167086058E+01      0.3596417621E+01      0.4601537379E+02      0.1576361693E-02
          0                 5           4            19    3     3       0.4068817311E-03       2    6    1       0.6247787954E+00      0.8411538914E+00      0.3596417621E+01      0.4068817311E-03
          0                 6           3            19    3     3       0.1099074085E-03       2    6    1       0.1784732179E+00      0.2483367359E+00      0.8411538914E+00      0.1099074085E-03
          0                 7           2            19    3     3       0.2613970481E-04       2    6    1       0.5082474323E-01      0.7618230165E-01      0.2483367359E+00      0.2613970481E-04

    ------------------------------------------------
       NWT REQUIRED            7 OUTER ITERATIONS 
       AND A TOTAL OF         35 INNER ITERATIONS.
    ------------------------------------------------
                                                   Max.-Head-Change                        Max.-Flux-Residual
  Residual-Control   Outer-Iter.   Inner-Iter.     Column Row Layer    Max.-Head-Change    Column Row Layer    Max.-Flux-Residual            L2-New               L2-Old           Solver-Max-Delh
          0                 1           8             9    5     1       0.4413847363E+00       6    5    1       0.5357268658E+03      0.9263984241E+03      0.7618230165E-01      0.4413847363E+00
          0                 2           6             9    5     1      -0.3857145187E-01       6    5    1      -0.5485144917E+02      0.9441363485E+02      0.9263984241E+03     -0.3857145187E-01
          0                 3           5             9    5     1      -0.1935310424E-02       6    5    1      -0.2752309818E+01      0.5921022711E+01      0.9441363485E+02     -0.1935310424E-02
          0                 4           4             2    6     3      -0.1336618877E-03      12   20    1      -0.3360064822E+00      0.6107095813E+00      0.5921022711E+01     -0.1336618877E-03
          0                 5           3             2    6     3      -0.3909826376E-04      12   20    1      -0.9377301810E-01      0.1686391682E+00      0.6107095813E+00     -0.3909826376E-04

    ------------------------------------------------
       NWT REQUIRED            5 OUTER ITERATIONS 
       AND A TOTAL OF         26 INNER ITERATIONS.
    ------------------------------------------------
                                                   Max.-Head-Change                        Max.-Flux-Residual
  Residual-Control   Outer-Iter.   Inner-Iter.     Column Row Layer    Max.-Head-Change    Column Row Layer    Max.-Flux-Residual            L2-New               L2-Old           Solver-Max-Delh
          0                 1           7             9    5     1       0.2484693528E+00       9    5    1       0.2779598591E+03      0.4591304618E+03      0.1686391682E+00      0.2484693528E+00
          0                 2           6             9    5     1      -0.2161308345E-01       9    5    1      -0.2821187764E+02      0.4661992187E+02      0.4591304618E+03     -0.2161308345E-01
          0                 3           4             9    5     1      -0.1082882586E-02      19   18    1      -0.1974601618E+01      0.3684773254E+01      0.4661992187E+02     -0.1082882586E-02
          0                 4           3            12   20     1      -0.9800002116E-04      12   20    1      -0.2869056790E+00      0.3782838283E+00      0.3684773254E+01     -0.9800002116E-04

    ------------------------------------------------
       NWT REQUIRED            4 OUTER ITERATIONS 
       AND A TOTAL OF         20 INNER ITERATIONS.
    ------------------------------------------------
                                                   Max.-Head-Change                        Max.-Flux-Residual
  Residual-Control   Outer-Iter.   Inner-Iter.     Column Row Layer    Max.-Head-Change    Column Row Layer    Max.-Flux-Residual            L2-New               L2-Old           Solver-Max-Delh
          0                 1           7             9    5     1       0.1184061308E+00       9    5    1       0.1445789940E+03      0.2438990038E+03      0.3782838283E+00      0.1184061308E+00
          0                 2           5             9    5     1      -0.1026111177E-01       9    5    1      -0.1455710351E+02      0.2468661609E+02      0.2438990038E+03     -0.1026111177E-01
          0                 3           4             9    5     1      -0.5135632547E-03      19   18    1      -0.1212077195E+01      0.2135387771E+01      0.2468661609E+02     -0.5135632547E-03
          0                 4           3            12   20     1      -0.5719796073E-04      12   20    1      -0.1737885756E+00      0.2195061885E+00      0.2135387771E+01     -0.5719796073E-04

    ------------------------------------------------
       NWT REQUIRED            4 OUTER ITERATIONS 
       AND A TOTAL OF         19 INNER ITERATIONS.
    ------------------------------------------------
                                                   Max.-Head-Change                        Max.-Flux-Residual
  Residual-Control   Outer-Iter.   Inner-Iter.     Column Row Layer    Max.-Head-Change    Column Row Layer    Max.-Flux-Residual            L2-New               L2-Old           Solver-Max-Delh
          0                 1           6             7    5     1       0.4843276942E-01       6    6    1       0.6887914228E+02      0.1183520023E+03      0.2195061885E+00      0.4843276942E-01
          0                 2           5             7    5     1      -0.4189046709E-02       6    6    1      -0.6907422295E+01      0.1194890624E+02      0.1183520023E+03     -0.4189046709E-02
          0                 3           4            19   18     1      -0.2510197470E-03      19   21    1      -0.6316197662E+00      0.1086561878E+01      0.1194890624E+02     -0.2510197470E-03
          0                 4           2            12   20     1      -0.3064633104E-04      12   20    1      -0.8940431237E-01      0.1137362420E+00      0.1086561878E+01     -0.3064633104E-04

    ------------------------------------------------
       NWT REQUIRED            4 OUTER ITERATIONS 
       AND A TOTAL OF         17 INNER ITERATIONS.
    ------------------------------------------------
                                                   Max.-Head-Change                        Max.-Flux-Residual
  Residual-Control   Outer-Iter.   Inner-Iter.     Column Row Layer    Max.-Head-Change    Column Row Layer    Max.-Flux-Residual            L2-New               L2-Old           Solver-Max-Delh
          0                 1           6             6    6     1       0.2033566073E-01       6    6    1       0.3374161902E+02      0.5571458313E+02      0.1137362420E+00      0.2033566073E-01
          0                 2           4             6    6     1      -0.1756628307E-02       6    6    1      -0.3378258019E+01      0.5611337731E+01      0.5571458313E+02     -0.1756628307E-02
          0                 3           3            19   18     1      -0.1112545787E-03      19   21    1      -0.2829330886E+00      0.4962051736E+00      0.5611337731E+01     -0.1112545787E-03
          0                 4           2            12   20     1      -0.1087839097E-04      12   20    1      -0.3603426547E-01      0.5978268424E-01      0.4962051736E+00     -0.1087839097E-04

    ------------------------------------------------
       NWT REQUIRED            4 OUTER ITERATIONS 
       AND A TOTAL OF         15 INNER ITERATIONS.
    ------------------------------------------------
                                                   Max.-Head-Change                        Max.-Flux-Residual
  Residual-Control   Outer-Iter.   Inner-Iter.     Column Row Layer    Max.-Head-Change    Column Row Layer    Max.-Flux-Residual            L2-New               L2-Old           Solver-Max-Delh
          0                 1           5            10    5     2      -0.7937900942E-02       6    6    1       0.1464467744E+02      0.2681001434E+02      0.5978268424E-01     -0.7937900942E-02
          0                 2           4            10    5     2       0.6850255266E-03       6    6    1      -0.1464810169E+01      0.2692953369E+01      0.2681001434E+02      0.6850255266E-03
          0                 3           3            19   21     1      -0.4475710426E-04      19   21    1      -0.1166731725E+00      0.2150624641E+00      0.2692953369E+01     -0.4475710426E-04

    ------------------------------------------------
       NWT REQUIRED            3 OUTER ITERATIONS 
       AND A TOTAL OF         12 INNER ITERATIONS.
    ------------------------------------------------
                                                   Max.-Head-Change                        Max.-Flux-Residual
  Residual-Control   Outer-Iter.   Inner-Iter.     Column Row Layer    Max.-Head-Change    Column Row Layer    Max.-Flux-Residual            L2-New               L2-Old           Solver-Max-Delh
          0                 1           5            10    5     2      -0.5615652660E-02      10    5    1      -0.6983504173E+01      0.1310773776E+02      0.2150624641E+00     -0.5615652660E-02
          0                 2           4            10    5     2       0.4846400310E-03      10    5    1       0.6976670834E+00      0.1313382099E+01      0.1310773776E+02      0.4846400310E-03
          0                 3           2            10    5     2       0.2398656091E-04      10    5    1       0.3491207180E-01      0.8680995583E-01      0.1313382099E+01      0.2398656091E-04

    ------------------------------------------------
       NWT REQUIRED            3 OUTER ITERATIONS 
       AND A TOTAL OF         11 INNER ITERATIONS.
    ------------------------------------------------
                                                   Max.-Head-Change                        Max.-Flux-Residual
  Residual-Control   Outer-Iter.   Inner-Iter.     Column Row Layer    Max.-Head-Change    Column Row Layer    Max.-Flux-Residual            L2-New               L2-Old           Solver-Max-Delh
          0                 1           5            10    5     1      -0.3259677077E-02      10    5    1      -0.3858718359E+01      0.6218134699E+01      0.8680995583E-01     -0.3259677077E-02
          0                 2           4            10    5     1       0.2814748994E-03      10    5    1       0.3857858430E+00      0.6239733426E+00      0.6218134699E+01      0.2814748994E-03
          0                 3           2            10    5     1       0.1404662025E-04      19   10    1       0.2040742204E-01      0.4445459989E-01      0.6239733426E+00      0.1404662025E-04

    ------------------------------------------------
       NWT REQUIRED            3 OUTER ITERATIONS 
       AND A TOTAL OF         11 INNER ITERATIONS.
    ------------------------------------------------
                                                   Max.-Head-Change                        Max.-Flux-Residual
  Residual-Control   Outer-Iter.   Inner-Iter.     Column Row Layer    Max.-Head-Change    Column Row Layer    Max.-Flux-Residual            L2-New               L2-Old           Solver-Max-Delh
          0                 1           4            10    5     1      -0.1527662489E-02      10    5    1      -0.1769355144E+01      0.2839308881E+01      0.4445459989E-01     -0.1527662489E-02
          0                 2           3            10    5     1       0.1320263909E-03      10    5    1       0.1769152762E+00      0.2863496858E+00      0.2839308881E+01      0.1320263909E-03
          0                 3           2            10    5     1       0.6457565885E-05      19   10    1      -0.1425205567E-01      0.3331468635E-01      0.2863496858E+00      0.6457565885E-05

    ------------------------------------------------
       NWT REQUIRED            3 OUTER ITERATIONS 
       AND A TOTAL OF          9 INNER ITERATIONS.
    ------------------------------------------------
                                                   Max.-Head-Change                        Max.-Flux-Residual
  Residual-Control   Outer-Iter.   Inner-Iter.     Column Row Layer    Max.-Head-Change    Column Row Layer    Max.-Flux-Residual            L2-New               L2-Old           Solver-Max-Delh
          0                 1           4             9    5     1      -0.5561972233E-03      10    5    1      -0.6340929596E+00      0.1324491677E+01      0.3331468635E-01     -0.5561972233E-03
          0                 2           3             9    5     1       0.4825048259E-04      10    5    1       0.6319424984E-01      0.1368565092E+00      0.1324491677E+01      0.4825048259E-04

    ------------------------------------------------
       NWT REQUIRED            2 OUTER ITERATIONS 
       AND A TOTAL OF          7 INNER ITERATIONS.
    ------------------------------------------------
                                                   Max.-Head-Change                        Max.-Flux-Residual
  Residual-Control   Outer-Iter.   Inner-Iter.     Column Row Layer    Max.-Head-Change    Column Row Layer    Max.-Flux-Residual            L2-New               L2-Old           Solver-Max-Delh
          0                 1           4             6    6     1      -0.3114130139E-03       6    6    1      -0.4175836223E+00      0.7083009687E+00      0.1368565092E+00     -0.3114130139E-03
          0                 2           2             6    6     1       0.2675491559E-04       6    6    1       0.4188509515E-01      0.8044127575E-01      0.7083009687E+00      0.2675491559E-04

    ------------------------------------------------
       NWT REQUIRED            2 OUTER ITERATIONS 
       AND A TOTAL OF          6 INNER ITERATIONS.
    ------------------------------------------------

 OUTPUT CONTROL FOR STRESS PERIOD      4   TIME STEP     1
    SAVE BUDGET
 UBDSV1 SAVING "         STORAGE" ON UNIT  70 AT TIME STEP    1, STRESS PERIOD   4
 UBDSV2 SAVING "   CONSTANT HEAD" ON UNIT  70 AT TIME STEP    1, STRESS PERIOD   4
 UBDSV1 SAVING "FLOW RIGHT FACE " ON UNIT  70 AT TIME STEP    1, STRESS PERIOD   4
 UBDSV1 SAVING "FLOW FRONT FACE " ON UNIT  70 AT TIME STEP    1, STRESS PERIOD   4
 UBDSV1 SAVING "FLOW LOWER FACE " ON UNIT  70 AT TIME STEP    1, STRESS PERIOD   4
 UBDSV4 SAVING " HEAD DEP BOUNDS" ON UNIT  70 AT TIME STEP    1, STRESS PERIOD   4
 UBDSV4 SAVING "  STREAM LEAKAGE" ON UNIT  70 AT TIME STEP    1, STRESS PERIOD   4



 UBDSV4 SAVING "             MNW" ON UNIT  70 AT TIME STEP    1, STRESS PERIOD   4
 
 
 
 
 
 
 
 
 UBDSV3 SAVING "FARM  NET  RECH." ON UNIT  70 AT TIME STEP    1, STRESS PERIOD   4
 UBDSV4 SAVING " GHOST-NODE FLUX" ON UNIT  70 AT TIME STEP    1, STRESS PERIOD   4
 UBDSV4 SAVING " GHOST-NODE FLUX" ON UNIT  70 AT TIME STEP    1, STRESS PERIOD   4
 UBDSV4 SAVING " GHOST-NODE FLUX" ON UNIT  70 AT TIME STEP    1, STRESS PERIOD   4
 
 SOLVING FOR HEAD 
                                                   Max.-Head-Change                        Max.-Flux-Residual
  Residual-Control   Outer-Iter.   Inner-Iter.     Column Row Layer    Max.-Head-Change    Column Row Layer    Max.-Flux-Residual            L2-New               L2-Old           Solver-Max-Delh
          0                 1           9            19    3     4      -0.4182589803E+01       6    5    1       0.7765804312E+04      0.8450686026E+04      0.8044127575E-01     -0.4182589803E+01
          0                 2           7            19    3     2      -0.3898588582E+00       6    5    1      -0.8351717826E+03      0.1092850952E+04      0.8450686026E+04     -0.3898588582E+00
          0                 3           6            15   16     1       0.4522114590E-01      15   16    1       0.1409727324E+03      0.1715727611E+03      0.1092850952E+04      0.4522114590E-01
          0                 4           5            17    6     4      -0.7582940333E-02      15   16    1       0.1208940353E+02      0.2150609143E+02      0.1715727611E+03     -0.7582940333E-02
          0                 5           4            17    6     4      -0.1639890596E-02      17   14    1       0.3027329444E+01      0.5691069678E+01      0.2150609143E+02     -0.1639890596E-02
          0                 6           4            17    6     4      -0.3945613177E-03       2    8    1       0.8252480444E+00      0.1601434211E+01      0.5691069678E+01     -0.3945613177E-03
          0                 7           3             2    8     3       0.1163092506E-03       2    8    1       0.2546970188E+00      0.4589321976E+00      0.1601434211E+01      0.1163092506E-03
          0                 8           3             2    8     3       0.3586457202E-04       2    8    1       0.7830053684E-01      0.1340323326E+00      0.4589321976E+00      0.3586457202E-04

    ------------------------------------------------
       NWT REQUIRED            8 OUTER ITERATIONS 
       AND A TOTAL OF         41 INNER ITERATIONS.
    ------------------------------------------------
                                                   Max.-Head-Change                        Max.-Flux-Residual
  Residual-Control   Outer-Iter.   Inner-Iter.     Column Row Layer    Max.-Head-Change    Column Row Layer    Max.-Flux-Residual            L2-New               L2-Old           Solver-Max-Delh
          0                 1           9             6    5     1      -0.4472452575E+01       6    5    1      -0.9488644668E+04      0.9606273676E+04      0.1340323326E+00     -0.4472452575E+01
          0                 2           7             6    5     1       0.3329632466E+00       6    5    1       0.7580221451E+03      0.8040431809E+03      0.9606273676E+04      0.3329632466E+00
          0                 3           6             6    5     1       0.1637621350E-01       6    5    1       0.3681868182E+02      0.4434317427E+02      0.8040431809E+03      0.1637621350E-01
          0                 4           4             6    5     1       0.8427484284E-03       2    6    1       0.1865781156E+01      0.3539299643E+01      0.4434317427E+02      0.8427484284E-03
          0                 5           3             2    6     3       0.2226597823E-03       2    6    1       0.5386977121E+00      0.7596690615E+00      0.3539299643E+01      0.2226597823E-03
          0                 6           3             2    6     3       0.6474584738E-04       2    6    1       0.1534043055E+00      0.2162305336E+00      0.7596690615E+00      0.6474584738E-04

    ------------------------------------------------
       NWT REQUIRED            6 OUTER ITERATIONS 
       AND A TOTAL OF         32 INNER ITERATIONS.
    ------------------------------------------------
                                                   Max.-Head-Change                        Max.-Flux-Residual
  Residual-Control   Outer-Iter.   Inner-Iter.     Column Row Layer    Max.-Head-Change    Column Row Layer    Max.-Flux-Residual            L2-New               L2-Old           Solver-Max-Delh
          0                 1           7             6    8     1       0.1435950810E+00       6    8    1       0.1665356958E+03      0.3511034071E+03      0.2162305336E+00      0.1435950810E+00
          0                 2           6             6    8     1      -0.1243299484E-01       6    8    1      -0.1676848173E+02      0.3530893088E+02      0.3511034071E+03     -0.1243299484E-01
          0                 3           4             6    8     1      -0.6314779547E-03      12   20    1      -0.8570717238E+00      0.2079448434E+01      0.3530893088E+02     -0.6314779547E-03
          0                 4           3             2    8     3      -0.5445262783E-04       2    8    1      -0.1165319739E+00      0.2365906599E+00      0.2079448434E+01     -0.5445262783E-04

    ------------------------------------------------
       NWT REQUIRED            4 OUTER ITERATIONS 
       AND A TOTAL OF         20 INNER ITERATIONS.
    ------------------------------------------------
                                                   Max.-Head-Change                        Max.-Flux-Residual
  Residual-Control   Outer-Iter.   Inner-Iter.     Column Row Layer    Max.-Head-Change    Column Row Layer    Max.-Flux-Residual            L2-New               L2-Old           Solver-Max-Delh
          0                 1           7             6    6     1       0.9372414137E-01       7    5    1       0.1002349163E+03      0.2137335472E+03      0.2365906599E+00      0.9372414137E-01
          0                 2           5             6    6     1      -0.8109094272E-02       7    5    1      -0.1008733806E+02      0.2145921619E+02      0.2137335472E+03     -0.8109094272E-02
          0                 3           4             6    6     1      -0.4108646999E-03       7    5    1      -0.5050198214E+00      0.1143486833E+01      0.2145921619E+02     -0.4108646999E-03
          0                 4           3             2    6     3      -0.3304717089E-04       2    6    1      -0.7478331705E-01      0.1303991882E+00      0.1143486833E+01     -0.3304717089E-04

    ------------------------------------------------
       NWT REQUIRED            4 OUTER ITERATIONS 
       AND A TOTAL OF         19 INNER ITERATIONS.
    ------------------------------------------------
                                                   Max.-Head-Change                        Max.-Flux-Residual
  Residual-Control   Outer-Iter.   Inner-Iter.     Column Row Layer    Max.-Head-Change    Column Row Layer    Max.-Flux-Residual            L2-New               L2-Old           Solver-Max-Delh
          0                 1           6             7    5     1       0.6005914078E-01       7    5    1       0.7241097741E+02      0.1236249483E+03      0.1303991882E+00      0.6005914078E-01
          0                 2           5             7    5     1      -0.5195576417E-02       7    5    1      -0.7271648135E+01      0.1240440939E+02      0.1236249483E+03     -0.5195576417E-02
          0                 3           4             7    5     1      -0.2608151007E-03       7    5    1      -0.3637541793E+00      0.7178872085E+00      0.1240440939E+02     -0.2608151007E-03
          0                 4           2             2    6     2      -0.1795560042E-04       2    6    1      -0.4164957162E-01      0.8306590730E-01      0.7178872085E+00     -0.1795560042E-04

    ------------------------------------------------
       NWT REQUIRED            4 OUTER ITERATIONS 
       AND A TOTAL OF         17 INNER ITERATIONS.
    ------------------------------------------------
                                                   Max.-Head-Change                        Max.-Flux-Residual
  Residual-Control   Outer-Iter.   Inner-Iter.     Column Row Layer    Max.-Head-Change    Column Row Layer    Max.-Flux-Residual            L2-New               L2-Old           Solver-Max-Delh
          0                 1           6             7    5     1       0.3328344291E-01       7    5    1       0.4349859300E+02      0.6697745393E+02      0.8306590730E-01      0.3328344291E-01
          0                 2           5             7    5     1      -0.2876951633E-02       7    5    1      -0.4359746114E+01      0.6713722859E+01      0.6697745393E+02     -0.2876951633E-02
          0                 3           3             7    5     1      -0.1442479335E-03       7    5    1      -0.2180446447E+00      0.4134276589E+00      0.6713722859E+01     -0.1442479335E-03
          0                 4           2            12   20     1      -0.9716854142E-05      12   20    1      -0.2535263955E-01      0.4970719007E-01      0.4134276589E+00     -0.9716854142E-05

    ------------------------------------------------
       NWT REQUIRED            4 OUTER ITERATIONS 
       AND A TOTAL OF         16 INNER ITERATIONS.
    ------------------------------------------------
                                                   Max.-Head-Change                        Max.-Flux-Residual
  Residual-Control   Outer-Iter.   Inner-Iter.     Column Row Layer    Max.-Head-Change    Column Row Layer    Max.-Flux-Residual            L2-New               L2-Old           Solver-Max-Delh
          0                 1           6             7    5     1       0.1608560355E-01       7    5    1       0.2292524819E+02      0.3404127843E+02      0.4970719007E-01      0.1608560355E-01
          0                 2           4             7    5     1      -0.1389632252E-02       7    5    1      -0.2294916286E+01      0.3408960327E+01      0.3404127843E+02     -0.1389632252E-02
          0                 3           3             7    5     1      -0.6978420189E-04       7    5    1      -0.1147201273E+00      0.2119191629E+00      0.3408960327E+01     -0.6978420189E-04

    ------------------------------------------------
       NWT REQUIRED            3 OUTER ITERATIONS 
       AND A TOTAL OF         13 INNER ITERATIONS.
    ------------------------------------------------
                                                   Max.-Head-Change                        Max.-Flux-Residual
  Residual-Control   Outer-Iter.   Inner-Iter.     Column Row Layer    Max.-Head-Change    Column Row Layer    Max.-Flux-Residual            L2-New               L2-Old           Solver-Max-Delh
          0                 1           5             7    5     1       0.6727605557E-02       7    5    1       0.1069587161E+02      0.1645331680E+02      0.2119191629E+00      0.6727605557E-02
          0                 2           4             7    5     1      -0.5811676048E-03       7    5    1      -0.1070215102E+01      0.1647257239E+01      0.1645331680E+02     -0.5811676048E-03
          0                 3           2             7    5     1      -0.2883219888E-04       7    5    1      -0.5339195841E-01      0.1054053198E+00      0.1647257239E+01     -0.2883219888E-04

    ------------------------------------------------
       NWT REQUIRED            3 OUTER ITERATIONS 
       AND A TOTAL OF         11 INNER ITERATIONS.
    ------------------------------------------------
                                                   Max.-Head-Change                        Max.-Flux-Residual
  Residual-Control   Outer-Iter.   Inner-Iter.     Column Row Layer    Max.-Head-Change    Column Row Layer    Max.-Flux-Residual            L2-New               L2-Old           Solver-Max-Delh
          0                 1           4             7    5     1       0.2303605293E-02       7    5    1       0.4327268364E+01      0.7709406580E+01      0.1054053198E+00      0.2303605293E-02
          0                 2           3             7    5     1      -0.1991792967E-03       7    5    1      -0.4328712302E+00      0.7724855008E+00      0.7709406580E+01     -0.1991792967E-03
          0                 3           2             7    5     1      -0.9888642876E-05       7    5    1      -0.2160058270E-01      0.4918423501E-01      0.7724855008E+00     -0.9888642876E-05

    ------------------------------------------------
       NWT REQUIRED            3 OUTER ITERATIONS 
       AND A TOTAL OF          9 INNER ITERATIONS.
    ------------------------------------------------
                                                   Max.-Head-Change                        Max.-Flux-Residual
  Residual-Control   Outer-Iter.   Inner-Iter.     Column Row Layer    Max.-Head-Change    Column Row Layer    Max.-Flux-Residual            L2-New               L2-Old           Solver-Max-Delh
          0                 1           4            10    5     2      -0.1229206123E-02       6    6    1       0.1495824037E+01      0.3501277631E+01      0.4918423501E-01     -0.1229206123E-02
          0                 2           3            10    5     2       0.1059153426E-03       6    6    1      -0.1493953984E+00      0.3511082371E+00      0.3501277631E+01      0.1059153426E-03
          0                 3           2            20   18     1      -0.6170412365E-05      20   18    1      -0.1123416505E-01      0.2668319817E-01      0.3511082371E+00     -0.6170412365E-05

    ------------------------------------------------
       NWT REQUIRED            3 OUTER ITERATIONS 
       AND A TOTAL OF          9 INNER ITERATIONS.
    ------------------------------------------------
                                                   Max.-Head-Change                        Max.-Flux-Residual
  Residual-Control   Outer-Iter.   Inner-Iter.     Column Row Layer    Max.-Head-Change    Column Row Layer    Max.-Flux-Residual            L2-New               L2-Old           Solver-Max-Delh
          0                 1           4            10    5     1      -0.5904308738E-03       6    7    1      -0.7292781132E+00      0.1514289715E+01      0.2668319817E-01     -0.5904308738E-03
          0                 2           3            10    5     1       0.5095936206E-04       6    7    1       0.7243699796E-01      0.1535763509E+00      0.1514289715E+01      0.5095936206E-04

    ------------------------------------------------
       NWT REQUIRED            2 OUTER ITERATIONS 
       AND A TOTAL OF          7 INNER ITERATIONS.
    ------------------------------------------------
                                                   Max.-Head-Change                        Max.-Flux-Residual
  Residual-Control   Outer-Iter.   Inner-Iter.     Column Row Layer    Max.-Head-Change    Column Row Layer    Max.-Flux-Residual            L2-New               L2-Old           Solver-Max-Delh
          0                 1           4             6    7     1      -0.2844496745E-03       6    7    1      -0.3348852897E+00      0.6641763930E+00      0.1535763509E+00     -0.2844496745E-03
          0                 2           2             6    7     1       0.2450875123E-04       6    7    1       0.3386389848E-01      0.7233168099E-01      0.6641763930E+00      0.2450875123E-04

    ------------------------------------------------
       NWT REQUIRED            2 OUTER ITERATIONS 
       AND A TOTAL OF          6 INNER ITERATIONS.
    ------------------------------------------------
                                                   Max.-Head-Change                        Max.-Flux-Residual
  Residual-Control   Outer-Iter.   Inner-Iter.     Column Row Layer    Max.-Head-Change    Column Row Layer    Max.-Flux-Residual            L2-New               L2-Old           Solver-Max-Delh
          0                 1           3             7    5     1      -0.1561610682E-03       7    5    1      -0.1790632695E+00      0.3639603065E+00      0.7233168099E-01     -0.1561610682E-03
          0                 2           2             7    5     1       0.1375725714E-04       7    5    1       0.1833727426E-01      0.4386792448E-01      0.3639603065E+00      0.1375725714E-04

    ------------------------------------------------
       NWT REQUIRED            2 OUTER ITERATIONS 
       AND A TOTAL OF          5 INNER ITERATIONS.
    ------------------------------------------------

 OUTPUT CONTROL FOR STRESS PERIOD      4   TIME STEP     2
    SAVE BUDGET
 UBDSV1 SAVING "         STORAGE" ON UNIT  70 AT TIME STEP    2, STRESS PERIOD   4
 UBDSV2 SAVING "   CONSTANT HEAD" ON UNIT  70 AT TIME STEP    2, STRESS PERIOD   4
 UBDSV1 SAVING "FLOW RIGHT FACE " ON UNIT  70 AT TIME STEP    2, STRESS PERIOD   4
 UBDSV1 SAVING "FLOW FRONT FACE " ON UNIT  70 AT TIME STEP    2, STRESS PERIOD   4
 UBDSV1 SAVING "FLOW LOWER FACE " ON UNIT  70 AT TIME STEP    2, STRESS PERIOD   4
 UBDSV4 SAVING " HEAD DEP BOUNDS" ON UNIT  70 AT TIME STEP    2, STRESS PERIOD   4
 UBDSV4 SAVING "  STREAM LEAKAGE" ON UNIT  70 AT TIME STEP    2, STRESS PERIOD   4



 UBDSV4 SAVING "             MNW" ON UNIT  70 AT TIME STEP    2, STRESS PERIOD   4
 
 
 
 
 
 
 
 
 UBDSV3 SAVING "FARM  NET  RECH." ON UNIT  70 AT TIME STEP    2, STRESS PERIOD   4
 UBDSV4 SAVING " GHOST-NODE FLUX" ON UNIT  70 AT TIME STEP    2, STRESS PERIOD   4
 UBDSV4 SAVING " GHOST-NODE FLUX" ON UNIT  70 AT TIME STEP    2, STRESS PERIOD   4
 UBDSV4 SAVING " GHOST-NODE FLUX" ON UNIT  70 AT TIME STEP    2, STRESS PERIOD   4
1
  VOLUMETRIC BUDGET FOR ENTIRE MODEL AT END OF TIME STEP    2 IN STRESS PERIOD      4
  ------------------------------------------------------------------------------

     CUMULATIVE VOLUMES      L**3       RATES FOR THIS TIME STEP      L**3/T
     ------------------                 ------------------------

           IN:                                      IN:
           ---                                      ---
             STORAGE =     9123014.0000               STORAGE =       32910.1211
       CONSTANT HEAD =           0.0000         CONSTANT HEAD =           0.0000
     HEAD DEP BOUNDS =      647586.1875       HEAD DEP BOUNDS =        6605.3374
      STREAM LEAKAGE =     2506239.5000        STREAM LEAKAGE =       15765.0049
                 MNW =       13758.4385                   MNW =           0.0000
          FARM WELLS =           0.0000            FARM WELLS =           0.0000
    FARM  NET  RECH. =     2836351.5000      FARM  NET  RECH. =       11693.7734
     GHOST-NODE FLUX =      302875.4375       GHOST-NODE FLUX =        7652.8940

            TOTAL IN =    15429825.0000              TOTAL IN =       74627.1250

          OUT:                                     OUT:
          ----                                     ----
             STORAGE =     2590785.5000               STORAGE =        5702.4609
       CONSTANT HEAD =           0.0000         CONSTANT HEAD =           0.0000
     HEAD DEP BOUNDS =     2236148.0000       HEAD DEP BOUNDS =       17382.5566
      STREAM LEAKAGE =      289483.2188        STREAM LEAKAGE =         712.7285
                 MNW =      474541.5625                   MNW =       15372.5332
          FARM WELLS =      604420.9375            FARM WELLS =       19811.9199
    FARM  NET  RECH. =      461977.7500      FARM  NET  RECH. =        6868.5703
     GHOST-NODE FLUX =     8772471.0000       GHOST-NODE FLUX =        8776.3613

           TOTAL OUT =    15429828.0000             TOTAL OUT =       74627.1328

            IN - OUT =          -3.0000              IN - OUT =      -7.8125E-03

 PERCENT DISCREPANCY =          -0.00     PERCENT DISCREPANCY =          -0.00






          TIME SUMMARY AT END OF TIME STEP     2 IN STRESS PERIOD      4
                    SECONDS     MINUTES      HOURS       DAYS        YEARS
                    -----------------------------------------------------------
   TIME STEP LENGTH 1.31414E+06  21902.      365.04      15.210     4.16427E-02
 STRESS PERIOD TIME 2.62829E+06  43805.      730.08      30.420     8.32854E-02
         TOTAL TIME 1.05132E+07 1.75219E+05  2920.3      121.68     0.33314    
1
1
                            STRESS PERIOD NO.      5, LENGTH =   30.42000    
                            -----------------------------------------------

                              NUMBER OF TIME STEPS =     2

                               MULTIPLIER FOR DELT =     1.000

                            INITIAL TIME STEP SIZE =   15.21000    

 REUSING NON-PARAMETER GHB CELLS FROM LAST STRESS PERIOD

     92 GHB CELLS

 REUSING STREAM SEGMENT DATA FROM LAST STRESS PERIOD

 REUSING MNW7  FROM LAST STRESS PERIOD

 Parameter:  WELLS1
 WELL NO. LAYER    ROW    COL  F-WELL ID    FARM ID         QMAX         QMAXRESET       
 ----------------------------------------------------------------------------------------
       1      1      5      6          1          1      5.0000E+03              0
       2      1      8      7          2          1      5.0000E+03              0
       3      1      8      9          3          1      5.0000E+03              0
       4      1      5      9          4          2      3.0000E+03              0
       5      1      6     10          5          2      2.0000E+03              0
       6      1      7     11          6          2      1.0000E+03              0
       7      1     18      3          7          3      2.0000E+03              0
       8      1     21      3          8          3      4.0000E+03              0
       9      1     18     19          9          4      3.0000E+03              0
      10      1     21     19         10          4      5.0000E+03              0
      11      0      6      2        -11          5      5.0000E+03              1
      12      0      8      2        -12          5      5.0000E+03              1
      13      0     10      2        -13          5      5.0000E+03              1
      14      0      3     19        -14          6      1.0000E+04              1
      15      0      6     17        -15          6      6.0000E+03              1

 NUMBER OF ACTIVE FARM WELLS:       15

 THE SINGLE LAYER FMP- OR MNW- WELL IN ROW      8 AND COLUMN      7 IS LOCATED IN AN INACTIVE CELL (IBOUND=0) AND HAS BEEN EXCLUDED FROM THE TOTAL MAXIMUM CAPACITY PER FARM

 THE SINGLE LAYER FMP- OR MNW- WELL IN ROW      8 AND COLUMN      9 IS LOCATED IN AN INACTIVE CELL (IBOUND=0) AND HAS BEEN EXCLUDED FROM THE TOTAL MAXIMUM CAPACITY PER FARM

 THE SINGLE LAYER FMP- OR MNW- WELL IN ROW      6 AND COLUMN     10 IS LOCATED IN AN INACTIVE CELL (IBOUND=0) AND HAS BEEN EXCLUDED FROM THE TOTAL MAXIMUM CAPACITY PER FARM

 THE SINGLE LAYER FMP- OR MNW- WELL IN ROW      7 AND COLUMN     11 IS LOCATED IN AN INACTIVE CELL (IBOUND=0) AND HAS BEEN EXCLUDED FROM THE TOTAL MAXIMUM CAPACITY PER FARM

 FARM-ID  NUMBER OF WELLS PER FARM  TOTAL MAX.CAPACITY PER FARM
       1                         1                    5000.0000
       2                         1                    3000.0000
       3                         2                    6000.0000
       4                         2                    8000.0000
       5                         3                   15000.0000
       6                         2                   16000.0000
       7                         0                       0.0000
       8                         0                       0.0000

 READING LIST ON UNIT   20 WITH FILE NAME: C:\MF_OWHM_Release_Package\MF_OWHM_v1_0\examples\test-run-owhm-lgr\fmp-lgr-nwt\DATA_FMP\OFE.in
 LIST SCALING FACTOR= 0.80000    
 (THE SCALE FACTOR WAS APPLIED TO FIELDS   2 -   7)

 Reading list on unit   30

 Reading list on unit   40

  REF. EVAPOTRANSPIRATION =  5.920000E-03

 READING LIST ON UNIT   50 WITH FILE NAME: C:\MF_OWHM_Release_Package\MF_OWHM_v1_0\examples\test-run-owhm-lgr\fmp-lgr-nwt\DATA_FMP\FTE.in

Transpiratory and Evaporative Fractions of Crop Consumptive Use
    % Transpiration % Evap. for Precip. % Evap. for Irrig.
    1          0.846          0.154          0.154
    2          0.940          0.060          0.060
    3          0.000          1.000          1.000
    4          0.125          0.875          0.875
    5          0.924          0.076          0.000
    6          0.800          0.200          0.000

 READING LIST ON UNIT   60 WITH FILE NAME: C:\MF_OWHM_Release_Package\MF_OWHM_v1_0\examples\test-run-owhm-lgr\fmp-lgr-nwt\DATA_FMP\INEFFSW.in

FRACTIONS OF IN-EFFICIENT LOSSES TO SW-RUNOFF FROM 
     PRECIPITATION:  IRRIGATION:
    1          0.500          0.600
    2          0.400          0.300
    3          0.600          0.500
    4          0.700          0.600
    5          0.500          0.000
    6          0.300          0.000

       PRECIPITATION FLUX =  2.900000E-04

 OPENING FILE WITH FILENAME: ./DATA_FMP/NRDV.in
 AND UNIT NUMBER: -151
 READING SCALE FACTOR LIST ON UNIT   80 ASSOCIATED WITH FILE: C:\MF_OWHM_Release_Package\MF_OWHM_v1_0\examples\test-run-owhm-lgr\fmp-lgr-nwt\DATA_FMP\NRDV.in
 FIELD     SCALE FACTOR
     1       1.0000    
     2       5.0000    
     3       1.0000    
     4       1.0000    

UNRANKED LIST OF NON-ROUTED DELIVERIES TO FARMS [L3]:
TYPE:             1

FARM-ID  VOLUME:
      1   7.500E+04
      2   7.500E+04
      3   1.000E+05
      4   5.000E+04
      5   5.000E+04
      6   1.000E+05
      7   0.000E+00
      8   0.000E+00

FARM-ID  PRIORITY RANK OF NRD-TYPE:
      1           1
      2           1
      3           1
      4           1
      5           1
      6           1
      7           1
      8           1

FARM-ID  USE-FLAG:
         0 = SUFFICIENT USE
         1 = ABSOLUTE USE (RECHARGE SURPLUS BACK INTO CANAL)
         2 = ABSOLUTE USE (INJECT SURPLUS INTO FARM-WELLS)
      1           0
      2           0
      3           0
      4           0
      5           0
      6           0
      7           0
      8           0

LIST OF NON-ROUTED DELIVERIES IN RANKED SEQUENCE [L3/T]:

FARM-ID  RATE:
      1   2.465E+03
      2   2.465E+03
      3   3.287E+03
      4   1.644E+03
      5   1.644E+03
      6   3.287E+03
      7   0.000E+00
      8   0.000E+00

FARM-ID  USE-FLAG:
         0 = SUFFICIENT USE
         1 = ABSOLUTE USE (RECHARGE SURPLUS BACK INTO CANAL)
         2 = ABSOLUTE USE (INJECT SURPLUS INTO FARM-WELLS)
      1           0
      2           0
      3           0
      4           0
      5           0
      6           0
      7           0
      8           0

SURFACE-WATER FARM ALLOTMENT HEIGHT [L]:   0.050
 
 SOLVING FOR HEAD 
                                                   Max.-Head-Change                        Max.-Flux-Residual
  Residual-Control   Outer-Iter.   Inner-Iter.     Column Row Layer    Max.-Head-Change    Column Row Layer    Max.-Flux-Residual            L2-New               L2-Old           Solver-Max-Delh
          0                 1           9             6    5     1       0.5712087052E+01       6    5    1       0.1292139882E+05      0.1475981687E+05      0.4386792448E-01      0.5712087052E+01
          0                 2           9            19    3     3      -0.5522890036E+01       6    5    1      -0.6574859820E+04      0.1085472665E+05      0.1475981687E+05     -0.5522890036E+01
          0                 3           8             9    5     1      -0.1043096701E+01       9    5    1      -0.2031618491E+04      0.3695189492E+04      0.1085472665E+05     -0.1043096701E+01
          1                 3           0             9    5     1      -0.7301676785E+00       9    5    1      -0.4390576137E+04      0.4456638738E+04      0.3695189492E+04     -0.1043096701E+01
          0                 4           8             9    5     1      -0.2575960274E+01       9    5    1      -0.4961886496E+04      0.5099239290E+04      0.4456638738E+04     -0.2575960274E+01
          0                 5           7             9    5     1      -0.1539282771E+00      17   13    1       0.3383111000E+03      0.5049275997E+03      0.5099239290E+04     -0.1539282771E+00
          0                 6           6            17   13     1       0.3395153672E-01      17   13    1       0.1505066359E+03      0.1565871392E+03      0.5049275997E+03      0.3395153672E-01
          0                 7           5            17   13     1       0.1199169236E-01      17   13    1       0.5337885157E+02      0.5420915136E+02      0.1565871392E+03      0.1199169236E-01
          0                 8           4            17   13     1       0.3769982159E-02      17   13    1       0.1682156675E+02      0.1708507580E+02      0.5420915136E+02      0.3769982159E-02
          0                 9           4            17   13     1       0.1120468174E-02      17   13    1       0.4998186378E+01      0.5135741065E+01      0.1708507580E+02      0.1120468174E-02
                                                   Max.-Head-Change                        Max.-Flux-Residual
  Residual-Control   Outer-Iter.   Inner-Iter.     Column Row Layer    Max.-Head-Change    Column Row Layer    Max.-Flux-Residual            L2-New               L2-Old           Solver-Max-Delh
          0                10           3            17   13     1       0.3211668565E-03      17   13    1       0.1442807680E+01      0.1525099254E+01      0.5135741065E+01      0.3211668565E-03
          0                11           2            17   13     1       0.9047528261E-04      17   13    1       0.3996354898E+00      0.4477711404E+00      0.1525099254E+01      0.9047528261E-04

    ------------------------------------------------
       NWT REQUIRED           11 OUTER ITERATIONS 
       AND A TOTAL OF         65 INNER ITERATIONS.
    ------------------------------------------------
                                                   Max.-Head-Change                        Max.-Flux-Residual
  Residual-Control   Outer-Iter.   Inner-Iter.     Column Row Layer    Max.-Head-Change    Column Row Layer    Max.-Flux-Residual            L2-New               L2-Old           Solver-Max-Delh
          0                 1           8             9    5     1       0.2006178040E+01       9    5    1       0.3267768746E+04      0.3701949380E+04      0.4477711404E+00      0.2006178040E+01
          0                 2           7            12   11     1      -0.3586365438E+00      12   11    1      -0.6965594561E+03      0.1040399219E+04      0.3701949380E+04     -0.3586365438E+00
          0                 3           6            12   10     1      -0.5686022861E-01      12   10    1      -0.9640045593E+02      0.1282119916E+03      0.1040399219E+04     -0.5686022861E-01
          0                 4           4            12   10     1      -0.2863811518E-02      12   10    1      -0.4865267462E+01      0.7226848003E+01      0.1282119916E+03     -0.2863811518E-02
          0                 5           3            19    3     3       0.5805565170E-03      17   14    1      -0.5658966744E+00      0.7682824307E+00      0.7226848003E+01      0.5805565170E-03
          0                 6           2            19    3     3       0.1361582521E-03      17   14    1      -0.9880432539E-01      0.1294622416E+00      0.7682824307E+00      0.1361582521E-03
          0                 7           2            19    3     3       0.3414940406E-04      17   14    1      -0.1666539593E-01      0.3405706471E-01      0.1294622416E+00      0.3414940406E-04

    ------------------------------------------------
       NWT REQUIRED            7 OUTER ITERATIONS 
       AND A TOTAL OF         32 INNER ITERATIONS.
    ------------------------------------------------
                                                   Max.-Head-Change                        Max.-Flux-Residual
  Residual-Control   Outer-Iter.   Inner-Iter.     Column Row Layer    Max.-Head-Change    Column Row Layer    Max.-Flux-Residual            L2-New               L2-Old           Solver-Max-Delh
          0                 1           7            12   10     1      -0.5478148821E+00      12   10    1      -0.9393933762E+03      0.9656027050E+03      0.3405706471E-01     -0.5478148821E+00
          0                 2           7            12   11     1      -0.1739529783E+00      12   11    1      -0.3693380910E+03      0.3718120494E+03      0.9656027050E+03     -0.1739529783E+00
          0                 3           5            12   11     1       0.1490281593E-01      12   11    1       0.3644143579E+02      0.3689140662E+02      0.3718120494E+03      0.1490281593E-01
          0                 4           4            12   11     1       0.7438195619E-03      12   11    1       0.1818319238E+01      0.1859828910E+01      0.3689140662E+02      0.7438195619E-03
          0                 5           2            19    3     3       0.5392445694E-04      12   11    1       0.9093718132E-01      0.1036800478E+00      0.1859828910E+01      0.5392445694E-04

    ------------------------------------------------
       NWT REQUIRED            5 OUTER ITERATIONS 
       AND A TOTAL OF         25 INNER ITERATIONS.
    ------------------------------------------------
                                                   Max.-Head-Change                        Max.-Flux-Residual
  Residual-Control   Outer-Iter.   Inner-Iter.     Column Row Layer    Max.-Head-Change    Column Row Layer    Max.-Flux-Residual            L2-New               L2-Old           Solver-Max-Delh
          0                 1           7             9    5     1      -0.1348705803E+00       9    5    1      -0.1686132458E+03      0.2207937950E+03      0.1036800478E+00     -0.1348705803E+00
          0                 2           5             9    5     1       0.1159909852E-01       9    5    1       0.1673068194E+02      0.2245862694E+02      0.2207937950E+03      0.1159909852E-01
          0                 3           4             9    5     1       0.5794468639E-03       9    5    1       0.8354289272E+00      0.1261259330E+01      0.2245862694E+02      0.5794468639E-03
          0                 4           2             9    5     1       0.2853073856E-04      16   16    1      -0.7247059490E-01      0.1209047019E+00      0.1261259330E+01      0.2853073856E-04

    ------------------------------------------------
       NWT REQUIRED            4 OUTER ITERATIONS 
       AND A TOTAL OF         18 INNER ITERATIONS.
    ------------------------------------------------
                                                   Max.-Head-Change                        Max.-Flux-Residual
  Residual-Control   Outer-Iter.   Inner-Iter.     Column Row Layer    Max.-Head-Change    Column Row Layer    Max.-Flux-Residual            L2-New               L2-Old           Solver-Max-Delh
          0                 1           6             9    5     1      -0.8925582540E-01       9    5    1      -0.1148737833E+03      0.1464815320E+03      0.1209047019E+00     -0.8925582540E-01
          0                 2           5             9    5     1       0.7687231699E-02       9    5    1       0.1142931437E+02      0.1481609180E+02      0.1464815320E+03      0.7687231699E-02
          0                 3           4             9    5     1       0.3840849892E-03       9    5    1       0.5708710648E+00      0.7877101739E+00      0.1481609180E+02      0.3840849892E-03
          0                 4           2             9    5     1       0.1919371626E-04       9    5    1       0.2857957740E-01      0.5794034086E-01      0.7877101739E+00      0.1919371626E-04

    ------------------------------------------------
       NWT REQUIRED            4 OUTER ITERATIONS 
       AND A TOTAL OF         17 INNER ITERATIONS.
    ------------------------------------------------
                                                   Max.-Head-Change                        Max.-Flux-Residual
  Residual-Control   Outer-Iter.   Inner-Iter.     Column Row Layer    Max.-Head-Change    Column Row Layer    Max.-Flux-Residual            L2-New               L2-Old           Solver-Max-Delh
          0                 1           6             9    5     1      -0.4590169976E-01       9    5    1      -0.6282424774E+02      0.8059433638E+02      0.5794034086E-01     -0.4590169976E-01
          0                 2           5             9    5     1       0.3958606916E-02       9    5    1       0.6266592207E+01      0.8138337361E+01      0.8059433638E+02      0.3958606916E-02
          0                 3           3             9    5     1       0.1980000294E-03       9    5    1       0.3132791533E+00      0.4264105497E+00      0.8138337361E+01      0.1980000294E-03
          0                 4           2             9    5     1       0.9946394568E-05      12   19    1       0.2899923676E-01      0.4495075007E-01      0.4264105497E+00      0.9946394568E-05

    ------------------------------------------------
       NWT REQUIRED            4 OUTER ITERATIONS 
       AND A TOTAL OF         16 INNER ITERATIONS.
    ------------------------------------------------
                                                   Max.-Head-Change                        Max.-Flux-Residual
  Residual-Control   Outer-Iter.   Inner-Iter.     Column Row Layer    Max.-Head-Change    Column Row Layer    Max.-Flux-Residual            L2-New               L2-Old           Solver-Max-Delh
          0                 1           6             9    5     1      -0.1890998755E-01       9    5    1      -0.2901566350E+02      0.3938432764E+02      0.4495075007E-01     -0.1890998755E-01
          0                 2           4             9    5     1       0.1632453228E-02       9    5    1       0.2899141065E+01      0.3972757488E+01      0.3938432764E+02      0.1632453228E-02
          0                 3           3             9    5     1       0.8182765306E-04       9    5    1       0.1450744678E+00      0.2130039412E+00      0.3972757488E+01      0.8182765306E-04

    ------------------------------------------------
       NWT REQUIRED            3 OUTER ITERATIONS 
       AND A TOTAL OF         13 INNER ITERATIONS.
    ------------------------------------------------
                                                   Max.-Head-Change                        Max.-Flux-Residual
  Residual-Control   Outer-Iter.   Inner-Iter.     Column Row Layer    Max.-Head-Change    Column Row Layer    Max.-Flux-Residual            L2-New               L2-Old           Solver-Max-Delh
          0                 1           5             9    5     1      -0.5725570445E-02       9    5    1      -0.1119756773E+02      0.1801986551E+02      0.2130039412E+00     -0.5725570445E-02
          0                 2           4             9    5     1       0.4943381267E-03       9    5    1       0.1119607929E+01      0.1813991045E+01      0.1801986551E+02      0.4943381267E-03
          0                 3           2             9    5     1       0.2448478470E-04       9    5    1       0.5594130000E-01      0.9993953032E-01      0.1813991045E+01      0.2448478470E-04

    ------------------------------------------------
       NWT REQUIRED            3 OUTER ITERATIONS 
       AND A TOTAL OF         11 INNER ITERATIONS.
    ------------------------------------------------
                                                   Max.-Head-Change                        Max.-Flux-Residual
  Residual-Control   Outer-Iter.   Inner-Iter.     Column Row Layer    Max.-Head-Change    Column Row Layer    Max.-Flux-Residual            L2-New               L2-Old           Solver-Max-Delh
          0                 1           5            12   10     1       0.2249319642E-02      12   10    1       0.4212245170E+01      0.8034480741E+01      0.9993953032E-01      0.2249319642E-02
          0                 2           3            12   10     1      -0.1945194357E-03      12   10    1      -0.4213453833E+00      0.8074423340E+00      0.8034480741E+01     -0.1945194357E-03
          0                 3           2            12   10     1      -0.9531780612E-05      16   12    1       0.2150771278E-01      0.5309172355E-01      0.8074423340E+00     -0.9531780612E-05

    ------------------------------------------------
       NWT REQUIRED            3 OUTER ITERATIONS 
       AND A TOTAL OF         10 INNER ITERATIONS.
    ------------------------------------------------
                                                   Max.-Head-Change                        Max.-Flux-Residual
  Residual-Control   Outer-Iter.   Inner-Iter.     Column Row Layer    Max.-Head-Change    Column Row Layer    Max.-Flux-Residual            L2-New               L2-Old           Solver-Max-Delh
          0                 1           4            10    5     1       0.1369136860E-02      10    5    1       0.1948834682E+01      0.3658242943E+01      0.5309172355E-01      0.1369136860E-02
          0                 2           3            10    5     1      -0.1181459961E-03      10    5    1      -0.1948428566E+00      0.3678156173E+00      0.3658242943E+01     -0.1181459961E-03
          0                 3           2            10    5     1      -0.5758544430E-05      10    5    1      -0.9779510321E-02      0.2424552071E-01      0.3678156173E+00     -0.5758544430E-05

    ------------------------------------------------
       NWT REQUIRED            3 OUTER ITERATIONS 
       AND A TOTAL OF          9 INNER ITERATIONS.
    ------------------------------------------------
                                                   Max.-Head-Change                        Max.-Flux-Residual
  Residual-Control   Outer-Iter.   Inner-Iter.     Column Row Layer    Max.-Head-Change    Column Row Layer    Max.-Flux-Residual            L2-New               L2-Old           Solver-Max-Delh
          0                 1           4            10    5     1       0.8893680520E-03      10    5    1       0.1137962796E+01      0.1808060161E+01      0.2424552071E-01      0.8893680520E-03
          0                 2           3            10    5     1      -0.7695841023E-04      10    5    1      -0.1137915310E+00      0.1832997439E+00      0.1808060161E+01     -0.7695841023E-04

    ------------------------------------------------
       NWT REQUIRED            2 OUTER ITERATIONS 
       AND A TOTAL OF          7 INNER ITERATIONS.
    ------------------------------------------------
                                                   Max.-Head-Change                        Max.-Flux-Residual
  Residual-Control   Outer-Iter.   Inner-Iter.     Column Row Layer    Max.-Head-Change    Column Row Layer    Max.-Flux-Residual            L2-New               L2-Old           Solver-Max-Delh
          0                 1           4             9    5     1       0.4428335601E-03      10    5    1       0.5391341650E+00      0.9612533920E+00      0.1832997439E+00      0.4428335601E-03
          0                 2           2             9    5     1      -0.3797422337E-04      10    5    1      -0.5366464696E-01      0.1002546984E+00      0.9612533920E+00     -0.3797422337E-04

    ------------------------------------------------
       NWT REQUIRED            2 OUTER ITERATIONS 
       AND A TOTAL OF          6 INNER ITERATIONS.
    ------------------------------------------------

 OUTPUT CONTROL FOR STRESS PERIOD      5   TIME STEP     1
    SAVE BUDGET
 UBDSV1 SAVING "         STORAGE" ON UNIT  70 AT TIME STEP    1, STRESS PERIOD   5
 UBDSV2 SAVING "   CONSTANT HEAD" ON UNIT  70 AT TIME STEP    1, STRESS PERIOD   5
 UBDSV1 SAVING "FLOW RIGHT FACE " ON UNIT  70 AT TIME STEP    1, STRESS PERIOD   5
 UBDSV1 SAVING "FLOW FRONT FACE " ON UNIT  70 AT TIME STEP    1, STRESS PERIOD   5
 UBDSV1 SAVING "FLOW LOWER FACE " ON UNIT  70 AT TIME STEP    1, STRESS PERIOD   5
 UBDSV4 SAVING " HEAD DEP BOUNDS" ON UNIT  70 AT TIME STEP    1, STRESS PERIOD   5
 UBDSV4 SAVING "  STREAM LEAKAGE" ON UNIT  70 AT TIME STEP    1, STRESS PERIOD   5



 UBDSV4 SAVING "             MNW" ON UNIT  70 AT TIME STEP    1, STRESS PERIOD   5
 
 
 
 
 
 
 
 
 UBDSV3 SAVING "FARM  NET  RECH." ON UNIT  70 AT TIME STEP    1, STRESS PERIOD   5
 UBDSV4 SAVING " GHOST-NODE FLUX" ON UNIT  70 AT TIME STEP    1, STRESS PERIOD   5
 UBDSV4 SAVING " GHOST-NODE FLUX" ON UNIT  70 AT TIME STEP    1, STRESS PERIOD   5
 UBDSV4 SAVING " GHOST-NODE FLUX" ON UNIT  70 AT TIME STEP    1, STRESS PERIOD   5
 
 SOLVING FOR HEAD 
                                                   Max.-Head-Change                        Max.-Flux-Residual
  Residual-Control   Outer-Iter.   Inner-Iter.     Column Row Layer    Max.-Head-Change    Column Row Layer    Max.-Flux-Residual            L2-New               L2-Old           Solver-Max-Delh
          0                 1           9            19    3     4      -0.3060910838E+01      12   11    1       0.1719700812E+04      0.4168569857E+04      0.1002546984E+00     -0.3060910838E+01
          1                 1           0            19    3     4      -0.2142637550E+01       9    5    1      -0.5159834007E+04      0.5528127517E+04      0.4168569857E+04     -0.3060910838E+01
          2                 1           0            19    3     4      -0.1499846259E+01       9    5    1      -0.5034070834E+04      0.5200741320E+04      0.5528127517E+04     -0.3060910838E+01
          0                 2           8             9    5     1      -0.2497387359E+01       9    5    1      -0.4946145536E+04      0.5310126137E+04      0.5200741320E+04     -0.2497387359E+01
          0                 3           7             9    5     1      -0.1433174598E+00      17   14    1       0.4115707997E+03      0.6666536338E+03      0.5310126137E+04     -0.1433174598E+00
          0                 4           6            17   13     1       0.5346231528E-01      17   13    1       0.1993180114E+03      0.2108421184E+03      0.6666536338E+03      0.5346231528E-01
          0                 5           5             2    8     3      -0.2924730059E-02      17   13    1       0.1054132712E+02      0.1551539121E+02      0.2108421184E+03     -0.2924730059E-02
          0                 6           4             2    8     3      -0.5424474903E-03       2    8    1      -0.9420803260E+00      0.2380975628E+01      0.1551539121E+02     -0.5424474903E-03
          0                 7           3             2    8     3      -0.1072339252E-03       1   11    1      -0.2282677524E+00      0.5781412974E+00      0.2380975628E+01     -0.1072339252E-03
          0                 8           3             1   11     4      -0.2427184494E-04       1    5    1      -0.5473863910E-01      0.1302821539E+00      0.5781412974E+00     -0.2427184494E-04

    ------------------------------------------------
       NWT REQUIRED            8 OUTER ITERATIONS 
       AND A TOTAL OF         45 INNER ITERATIONS.
    ------------------------------------------------
                                                   Max.-Head-Change                        Max.-Flux-Residual
  Residual-Control   Outer-Iter.   Inner-Iter.     Column Row Layer    Max.-Head-Change    Column Row Layer    Max.-Flux-Residual            L2-New               L2-Old           Solver-Max-Delh
          0                 1           8             9    5     1       0.3407235659E+01       9    5    1       0.5433497643E+04      0.5628668616E+04      0.1302821539E+00      0.3407235659E+01
          0                 2           7             9    5     1      -0.3201496781E+00       9    5    1      -0.6278870040E+03      0.9570687481E+03      0.5628668616E+04     -0.3201496781E+00
          0                 3           6            12   11     1      -0.4244901779E-01      12   11    1      -0.9659012779E+02      0.1268070332E+03      0.9570687481E+03     -0.4244901779E-01
          0                 4           5            12   11     1      -0.6138095463E-02      12   11    1      -0.1534925383E+02      0.1757195671E+02      0.1268070332E+03     -0.6138095463E-02
          0                 5           4            12   11     1      -0.8560558022E-03      12   11    1      -0.2205302004E+01      0.2367036572E+01      0.1757195671E+02     -0.8560558022E-03
          0                 6           3            19    3     3       0.1470748495E-03      12   11    1      -0.3073180764E+00      0.3540764336E+00      0.2367036572E+01      0.1470748495E-03
          0                 7           2            19    3     3       0.3452407386E-04      12   11    1      -0.4263069847E-01      0.5772575875E-01      0.3540764336E+00      0.3452407386E-04

    ------------------------------------------------
       NWT REQUIRED            7 OUTER ITERATIONS 
       AND A TOTAL OF         35 INNER ITERATIONS.
    ------------------------------------------------
                                                   Max.-Head-Change                        Max.-Flux-Residual
  Residual-Control   Outer-Iter.   Inner-Iter.     Column Row Layer    Max.-Head-Change    Column Row Layer    Max.-Flux-Residual            L2-New               L2-Old           Solver-Max-Delh
          0                 1           7            12   10     1      -0.4022069016E+00      12   10    1      -0.9496212238E+03      0.9977655800E+03      0.5772575875E-01     -0.4022069016E+00
          0                 2           7            12   10     1      -0.2427315446E+00      12   11    1      -0.4019274641E+03      0.5031146786E+03      0.9977655800E+03     -0.2427315446E+00
          0                 3           6            12   10     1       0.2070918149E-01      12   11    1       0.3961419204E+02      0.5004525625E+02      0.5031146786E+03      0.2070918149E-01
          0                 4           4            12   10     1       0.1032947730E-02      12   11    1       0.1976687830E+01      0.2522399580E+01      0.5004525625E+02      0.1032947730E-02
          0                 5           3            19    3     3       0.5617667835E-04      12   11    1       0.9795869462E-01      0.1393442970E+00      0.2522399580E+01      0.5617667835E-04

    ------------------------------------------------
       NWT REQUIRED            5 OUTER ITERATIONS 
       AND A TOTAL OF         27 INNER ITERATIONS.
    ------------------------------------------------
                                                   Max.-Head-Change                        Max.-Flux-Residual
  Residual-Control   Outer-Iter.   Inner-Iter.     Column Row Layer    Max.-Head-Change    Column Row Layer    Max.-Flux-Residual            L2-New               L2-Old           Solver-Max-Delh
          0                 1           7             9    5     1      -0.1044684498E+00       9    5    1      -0.1223710383E+03      0.2149346825E+03      0.1393442970E+00     -0.1044684498E+00
          0                 2           5             9    5     1       0.8993176212E-02       9    5    1       0.1216268008E+02      0.2149101867E+02      0.2149346825E+03      0.8993176212E-02
          0                 3           4             9    5     1       0.4489816658E-03       9    5    1       0.6075255725E+00      0.1097918179E+01      0.2149101867E+02      0.4489816658E-03
          0                 4           2            19    3     3       0.2311657034E-04       2    8    1      -0.4118979559E-01      0.8737661565E-01      0.1097918179E+01      0.2311657034E-04

    ------------------------------------------------
       NWT REQUIRED            4 OUTER ITERATIONS 
       AND A TOTAL OF         18 INNER ITERATIONS.
    ------------------------------------------------
                                                   Max.-Head-Change                        Max.-Flux-Residual
  Residual-Control   Outer-Iter.   Inner-Iter.     Column Row Layer    Max.-Head-Change    Column Row Layer    Max.-Flux-Residual            L2-New               L2-Old           Solver-Max-Delh
          0                 1           6             9    5     1      -0.8537694431E-01       9    5    1      -0.1047059430E+03      0.1408666176E+03      0.8737661565E-01     -0.8537694431E-01
          0                 2           5             9    5     1       0.7354123034E-02       9    5    1       0.1041971855E+02      0.1405028905E+02      0.1408666176E+03      0.7354123034E-02
          0                 3           4             9    5     1       0.3675613860E-03       9    5    1       0.5205049632E+00      0.7073158063E+00      0.1405028905E+02      0.3675613860E-03
          0                 4           2             9    5     1       0.1833642605E-04       9    5    1       0.2624369645E-01      0.4743508930E-01      0.7073158063E+00      0.1833642605E-04

    ------------------------------------------------
       NWT REQUIRED            4 OUTER ITERATIONS 
       AND A TOTAL OF         17 INNER ITERATIONS.
    ------------------------------------------------
                                                   Max.-Head-Change                        Max.-Flux-Residual
  Residual-Control   Outer-Iter.   Inner-Iter.     Column Row Layer    Max.-Head-Change    Column Row Layer    Max.-Flux-Residual            L2-New               L2-Old           Solver-Max-Delh
          0                 1           6             9    5     1      -0.4949094728E-01       9    5    1      -0.6443346081E+02      0.8333800207E+02      0.4743508930E-01     -0.4949094728E-01
          0                 2           5             9    5     1       0.4267914254E-02       9    5    1       0.6425679529E+01      0.8321063175E+01      0.8333800207E+02      0.4267914254E-02
          0                 3           3             9    5     1       0.2131105601E-03       9    5    1       0.3208024219E+00      0.4172771116E+00      0.8321063175E+01      0.2131105601E-03
          0                 4           2             9    5     1       0.1061631145E-04       9    5    1       0.1622254000E-01      0.3113718979E-01      0.4172771116E+00      0.1061631145E-04

    ------------------------------------------------
       NWT REQUIRED            4 OUTER ITERATIONS 
       AND A TOTAL OF         16 INNER ITERATIONS.
    ------------------------------------------------
                                                   Max.-Head-Change                        Max.-Flux-Residual
  Residual-Control   Outer-Iter.   Inner-Iter.     Column Row Layer    Max.-Head-Change    Column Row Layer    Max.-Flux-Residual            L2-New               L2-Old           Solver-Max-Delh
          0                 1           6             9    5     1      -0.2296888476E-01       9    5    1      -0.3281238417E+02      0.4304038748E+02      0.3113718979E-01     -0.2296888476E-01
          0                 2           4             9    5     1       0.1982215954E-02       9    5    1       0.3277180821E+01      0.4303126603E+01      0.4304038748E+02      0.1982215954E-02
          0                 3           3             9    5     1       0.9896786124E-04       9    5    1       0.1636894010E+00      0.2176853211E+00      0.4303126603E+01      0.9896786124E-04

    ------------------------------------------------
       NWT REQUIRED            3 OUTER ITERATIONS 
       AND A TOTAL OF         13 INNER ITERATIONS.
    ------------------------------------------------
                                                   Max.-Head-Change                        Max.-Flux-Residual
  Residual-Control   Outer-Iter.   Inner-Iter.     Column Row Layer    Max.-Head-Change    Column Row Layer    Max.-Flux-Residual            L2-New               L2-Old           Solver-Max-Delh
          0                 1           5             9    5     1      -0.8455060520E-02       9    5    1      -0.1419781585E+02      0.1948667417E+02      0.2176853211E+00     -0.8455060520E-02
          0                 2           4             9    5     1       0.7301989705E-03       9    5    1       0.1419523063E+01      0.1950722200E+01      0.1948667417E+02      0.7301989705E-03
          0                 3           2             9    5     1       0.3620691539E-04       9    5    1       0.7077050925E-01      0.1019814303E+00      0.1950722200E+01      0.3620691539E-04

    ------------------------------------------------
       NWT REQUIRED            3 OUTER ITERATIONS 
       AND A TOTAL OF         11 INNER ITERATIONS.
    ------------------------------------------------
                                                   Max.-Head-Change                        Max.-Flux-Residual
  Residual-Control   Outer-Iter.   Inner-Iter.     Column Row Layer    Max.-Head-Change    Column Row Layer    Max.-Flux-Residual            L2-New               L2-Old           Solver-Max-Delh
          0                 1           5             6    7     2      -0.2146309019E-02       9    5    1      -0.5059716277E+01      0.8461344356E+01      0.1019814303E+00     -0.2146309019E-02
          0                 2           3             6    7     2       0.1851242519E-03       9    5    1       0.5060845753E+00      0.8480700745E+00      0.8461344356E+01      0.1851242519E-03
          0                 3           2             6    7     2       0.9360192428E-05       9    5    1       0.2534537035E-01      0.4875822241E-01      0.8480700745E+00      0.9360192428E-05

    ------------------------------------------------
       NWT REQUIRED            3 OUTER ITERATIONS 
       AND A TOTAL OF         10 INNER ITERATIONS.
    ------------------------------------------------
                                                   Max.-Head-Change                        Max.-Flux-Residual
  Residual-Control   Outer-Iter.   Inner-Iter.     Column Row Layer    Max.-Head-Change    Column Row Layer    Max.-Flux-Residual            L2-New               L2-Old           Solver-Max-Delh
          0                 1           4             6    7     2      -0.1301551285E-02      10    5    1       0.1655573828E+01      0.4218430296E+01      0.4875822241E-01     -0.1301551285E-02
          0                 2           3             6    7     2       0.1119673903E-03      10    5    1      -0.1655206859E+00      0.4226120701E+00      0.4218430296E+01      0.1119673903E-03
          0                 3           2             6    7     2       0.5576608526E-05      14   15    1       0.1489006355E-01      0.3150396890E-01      0.4226120701E+00      0.5576608526E-05

    ------------------------------------------------
       NWT REQUIRED            3 OUTER ITERATIONS 
       AND A TOTAL OF          9 INNER ITERATIONS.
    ------------------------------------------------
                                                   Max.-Head-Change                        Max.-Flux-Residual
  Residual-Control   Outer-Iter.   Inner-Iter.     Column Row Layer    Max.-Head-Change    Column Row Layer    Max.-Flux-Residual            L2-New               L2-Old           Solver-Max-Delh
          0                 1           4            10    5     1       0.8697230712E-03      10    5    1       0.1178358591E+01      0.2322641471E+01      0.3150396890E-01      0.8697230712E-03
          0                 2           3            10    5     1      -0.7511363289E-04      10    5    1      -0.1179183286E+00      0.2342389122E+00      0.2322641471E+01     -0.7511363289E-04

    ------------------------------------------------
       NWT REQUIRED            2 OUTER ITERATIONS 
       AND A TOTAL OF          7 INNER ITERATIONS.
    ------------------------------------------------
                                                   Max.-Head-Change                        Max.-Flux-Residual
  Residual-Control   Outer-Iter.   Inner-Iter.     Column Row Layer    Max.-Head-Change    Column Row Layer    Max.-Flux-Residual            L2-New               L2-Old           Solver-Max-Delh
          0                 1           4            10    5     1       0.5061467976E-03      10    5    1       0.6542294459E+00      0.1198435319E+01      0.2342389122E+00      0.5061467976E-03
          0                 2           3            10    5     1      -0.4391544957E-04      10    5    1      -0.6565121849E-01      0.1245690842E+00      0.1198435319E+01     -0.4391544957E-04

    ------------------------------------------------
       NWT REQUIRED            2 OUTER ITERATIONS 
       AND A TOTAL OF          7 INNER ITERATIONS.
    ------------------------------------------------

 OUTPUT CONTROL FOR STRESS PERIOD      5   TIME STEP     2
    SAVE BUDGET
 UBDSV1 SAVING "         STORAGE" ON UNIT  70 AT TIME STEP    2, STRESS PERIOD   5
 UBDSV2 SAVING "   CONSTANT HEAD" ON UNIT  70 AT TIME STEP    2, STRESS PERIOD   5
 UBDSV1 SAVING "FLOW RIGHT FACE " ON UNIT  70 AT TIME STEP    2, STRESS PERIOD   5
 UBDSV1 SAVING "FLOW FRONT FACE " ON UNIT  70 AT TIME STEP    2, STRESS PERIOD   5
 UBDSV1 SAVING "FLOW LOWER FACE " ON UNIT  70 AT TIME STEP    2, STRESS PERIOD   5
 UBDSV4 SAVING " HEAD DEP BOUNDS" ON UNIT  70 AT TIME STEP    2, STRESS PERIOD   5
 UBDSV4 SAVING "  STREAM LEAKAGE" ON UNIT  70 AT TIME STEP    2, STRESS PERIOD   5



 UBDSV4 SAVING "             MNW" ON UNIT  70 AT TIME STEP    2, STRESS PERIOD   5
 
 
 
 
 
 
 
 
 UBDSV3 SAVING "FARM  NET  RECH." ON UNIT  70 AT TIME STEP    2, STRESS PERIOD   5
 UBDSV4 SAVING " GHOST-NODE FLUX" ON UNIT  70 AT TIME STEP    2, STRESS PERIOD   5
 UBDSV4 SAVING " GHOST-NODE FLUX" ON UNIT  70 AT TIME STEP    2, STRESS PERIOD   5
 UBDSV4 SAVING " GHOST-NODE FLUX" ON UNIT  70 AT TIME STEP    2, STRESS PERIOD   5
1
  VOLUMETRIC BUDGET FOR ENTIRE MODEL AT END OF TIME STEP    2 IN STRESS PERIOD      5
  ------------------------------------------------------------------------------

     CUMULATIVE VOLUMES      L**3       RATES FOR THIS TIME STEP      L**3/T
     ------------------                 ------------------------

           IN:                                      IN:
           ---                                      ---
             STORAGE =    10184371.0000               STORAGE =       31400.0098
       CONSTANT HEAD =           0.0000         CONSTANT HEAD =           0.0000
     HEAD DEP BOUNDS =      872914.8750       HEAD DEP BOUNDS =        7646.4785
      STREAM LEAKAGE =     3064727.5000        STREAM LEAKAGE =       18318.4082
                 MNW =       13758.4385                   MNW =           0.0000
          FARM WELLS =           0.0000            FARM WELLS =           0.0000
    FARM  NET  RECH. =     3426426.2500      FARM  NET  RECH. =       19354.9922
     GHOST-NODE FLUX =      516124.4375       GHOST-NODE FLUX =        7104.9937

            TOTAL IN =    18078322.0000              TOTAL IN =       83824.8828

          OUT:                                     OUT:
          ----                                     ----
             STORAGE =     2815888.7500               STORAGE =        5069.2114
       CONSTANT HEAD =           0.0000         CONSTANT HEAD =           0.0000
     HEAD DEP BOUNDS =     2747227.7500       HEAD DEP BOUNDS =       16634.8672
      STREAM LEAKAGE =      296823.1250        STREAM LEAKAGE =         159.2824
                 MNW =     1292226.0000                   MNW =       26807.5957
          FARM WELLS =     1198829.3750            FARM WELLS =       19516.5039
    FARM  NET  RECH. =      641143.8750      FARM  NET  RECH. =        5370.3276
     GHOST-NODE FLUX =     9086188.0000       GHOST-NODE FLUX =       10267.1289

           TOTAL OUT =    18078328.0000             TOTAL OUT =       83824.9219

            IN - OUT =          -6.0000              IN - OUT =      -3.9062E-02

 PERCENT DISCREPANCY =          -0.00     PERCENT DISCREPANCY =          -0.00






          TIME SUMMARY AT END OF TIME STEP     2 IN STRESS PERIOD      5
                    SECONDS     MINUTES      HOURS       DAYS        YEARS
                    -----------------------------------------------------------
   TIME STEP LENGTH 1.31414E+06  21902.      365.04      15.210     4.16427E-02
 STRESS PERIOD TIME 2.62829E+06  43805.      730.08      30.420     8.32854E-02
         TOTAL TIME 1.31414E+07 2.19024E+05  3650.4      152.10     0.41643    
1
1
                            STRESS PERIOD NO.      6, LENGTH =   30.42000    
                            -----------------------------------------------

                              NUMBER OF TIME STEPS =     2

                               MULTIPLIER FOR DELT =     1.000

                            INITIAL TIME STEP SIZE =   15.21000    

 REUSING NON-PARAMETER GHB CELLS FROM LAST STRESS PERIOD

     92 GHB CELLS

 REUSING STREAM SEGMENT DATA FROM LAST STRESS PERIOD

 REUSING MNW7  FROM LAST STRESS PERIOD

 Parameter:  WELLS1
 WELL NO. LAYER    ROW    COL  F-WELL ID    FARM ID         QMAX         QMAXRESET       
 ----------------------------------------------------------------------------------------
       1      1      5      6          1          1      5.0000E+03              0
       2      1      8      7          2          1      5.0000E+03              0
       3      1      8      9          3          1      5.0000E+03              0
       4      1      5      9          4          2      3.0000E+03              0
       5      1      6     10          5          2      2.0000E+03              0
       6      1      7     11          6          2      1.0000E+03              0
       7      1     18      3          7          3      2.0000E+03              0
       8      1     21      3          8          3      4.0000E+03              0
       9      1     18     19          9          4      3.0000E+03              0
      10      1     21     19         10          4      5.0000E+03              0
      11      0      6      2        -11          5      5.0000E+03              1
      12      0      8      2        -12          5      5.0000E+03              1
      13      0     10      2        -13          5      5.0000E+03              1
      14      0      3     19        -14          6      1.0000E+04              1
      15      0      6     17        -15          6      6.0000E+03              1

 NUMBER OF ACTIVE FARM WELLS:       15

 THE SINGLE LAYER FMP- OR MNW- WELL IN ROW      8 AND COLUMN      7 IS LOCATED IN AN INACTIVE CELL (IBOUND=0) AND HAS BEEN EXCLUDED FROM THE TOTAL MAXIMUM CAPACITY PER FARM

 THE SINGLE LAYER FMP- OR MNW- WELL IN ROW      8 AND COLUMN      9 IS LOCATED IN AN INACTIVE CELL (IBOUND=0) AND HAS BEEN EXCLUDED FROM THE TOTAL MAXIMUM CAPACITY PER FARM

 THE SINGLE LAYER FMP- OR MNW- WELL IN ROW      6 AND COLUMN     10 IS LOCATED IN AN INACTIVE CELL (IBOUND=0) AND HAS BEEN EXCLUDED FROM THE TOTAL MAXIMUM CAPACITY PER FARM

 THE SINGLE LAYER FMP- OR MNW- WELL IN ROW      7 AND COLUMN     11 IS LOCATED IN AN INACTIVE CELL (IBOUND=0) AND HAS BEEN EXCLUDED FROM THE TOTAL MAXIMUM CAPACITY PER FARM

 FARM-ID  NUMBER OF WELLS PER FARM  TOTAL MAX.CAPACITY PER FARM
       1                         1                    5000.0000
       2                         1                    3000.0000
       3                         2                    6000.0000
       4                         2                    8000.0000
       5                         3                   15000.0000
       6                         2                   16000.0000
       7                         0                       0.0000
       8                         0                       0.0000

 READING LIST ON UNIT   20 WITH FILE NAME: C:\MF_OWHM_Release_Package\MF_OWHM_v1_0\examples\test-run-owhm-lgr\fmp-lgr-nwt\DATA_FMP\OFE.in
 LIST SCALING FACTOR= 0.85000    
 (THE SCALE FACTOR WAS APPLIED TO FIELDS   2 -   7)

 Reading list on unit   30

 Reading list on unit   40

  REF. EVAPOTRANSPIRATION =  6.880000E-03

 READING LIST ON UNIT   50 WITH FILE NAME: C:\MF_OWHM_Release_Package\MF_OWHM_v1_0\examples\test-run-owhm-lgr\fmp-lgr-nwt\DATA_FMP\FTE.in

Transpiratory and Evaporative Fractions of Crop Consumptive Use
    % Transpiration % Evap. for Precip. % Evap. for Irrig.
    1          0.914          0.086          0.086
    2          0.950          0.050          0.050
    3          0.000          1.000          1.000
    4          0.125          0.875          0.875
    5          0.927          0.073          0.000
    6          0.900          0.100          0.000

 READING LIST ON UNIT   60 WITH FILE NAME: C:\MF_OWHM_Release_Package\MF_OWHM_v1_0\examples\test-run-owhm-lgr\fmp-lgr-nwt\DATA_FMP\INEFFSW.in

FRACTIONS OF IN-EFFICIENT LOSSES TO SW-RUNOFF FROM 
     PRECIPITATION:  IRRIGATION:
    1          0.500          0.600
    2          0.400          0.300
    3          0.600          0.500
    4          0.700          0.600
    5          0.500          0.000
    6          0.300          0.000

       PRECIPITATION FLUX =  1.300000E-04

 OPENING FILE WITH FILENAME: ./DATA_FMP/NRDV.in
 AND UNIT NUMBER: -152
 READING SCALE FACTOR LIST ON UNIT   80 ASSOCIATED WITH FILE: C:\MF_OWHM_Release_Package\MF_OWHM_v1_0\examples\test-run-owhm-lgr\fmp-lgr-nwt\DATA_FMP\NRDV.in
 FIELD     SCALE FACTOR
     1       1.0000    
     2       6.0000    
     3       1.0000    
     4       1.0000    

UNRANKED LIST OF NON-ROUTED DELIVERIES TO FARMS [L3]:
TYPE:             1

FARM-ID  VOLUME:
      1   9.000E+04
      2   9.000E+04
      3   1.200E+05
      4   6.000E+04
      5   6.000E+04
      6   1.200E+05
      7   0.000E+00
      8   0.000E+00

FARM-ID  PRIORITY RANK OF NRD-TYPE:
      1           1
      2           1
      3           1
      4           1
      5           1
      6           1
      7           1
      8           1

FARM-ID  USE-FLAG:
         0 = SUFFICIENT USE
         1 = ABSOLUTE USE (RECHARGE SURPLUS BACK INTO CANAL)
         2 = ABSOLUTE USE (INJECT SURPLUS INTO FARM-WELLS)
      1           0
      2           0
      3           0
      4           0
      5           0
      6           0
      7           0
      8           0

LIST OF NON-ROUTED DELIVERIES IN RANKED SEQUENCE [L3/T]:

FARM-ID  RATE:
      1   2.959E+03
      2   2.959E+03
      3   3.945E+03
      4   1.972E+03
      5   1.972E+03
      6   3.945E+03
      7   0.000E+00
      8   0.000E+00

FARM-ID  USE-FLAG:
         0 = SUFFICIENT USE
         1 = ABSOLUTE USE (RECHARGE SURPLUS BACK INTO CANAL)
         2 = ABSOLUTE USE (INJECT SURPLUS INTO FARM-WELLS)
      1           0
      2           0
      3           0
      4           0
      5           0
      6           0
      7           0
      8           0

SURFACE-WATER FARM ALLOTMENT HEIGHT [L]:   0.200
 
 SOLVING FOR HEAD 
                                                   Max.-Head-Change                        Max.-Flux-Residual
  Residual-Control   Outer-Iter.   Inner-Iter.     Column Row Layer    Max.-Head-Change    Column Row Layer    Max.-Flux-Residual            L2-New               L2-Old           Solver-Max-Delh
          0                 1           9             6    5     1       0.2305089235E+01       6    5    1       0.5195695105E+04      0.1011048896E+05      0.1245690842E+00      0.2305089235E+01
          1                 1           0             6    5     1       0.1613562437E+01       6    5    1      -0.5566675837E+04      0.1198305118E+05      0.1011048896E+05      0.2305089235E+01
          0                 2           9            19    3     3       0.1254826497E+02      19   21    1      -0.4411945361E+04      0.1100518687E+05      0.1198305118E+05      0.1254826497E+02
          0                 3           8            19    3     3       0.3037967742E+01      19    3    2       0.9526336463E+03      0.2056476620E+04      0.1100518687E+05      0.3037967742E+01
          0                 4           7            19    3     3       0.7349278221E+00      19    3    2       0.2303942218E+03      0.4384281239E+03      0.2056476620E+04      0.7349278221E+00
          0                 5           6            19    3     3       0.1777003842E+00      17   13    1       0.7546399472E+02      0.1160687849E+03      0.4384281239E+03      0.1777003842E+00
          0                 6           6            19    3     3       0.4294932637E-01      17   13    1       0.2314103378E+02      0.3121146233E+02      0.1160687849E+03      0.4294932637E-01
          0                 7           5            19    3     3       0.1037659849E-01      17   13    1       0.6781379576E+01      0.8423988485E+01      0.3121146233E+02      0.1037659849E-01
          0                 8           4            19    3     3       0.2505823592E-02      17   13    1       0.1943514679E+01      0.2281397796E+01      0.8423988485E+01      0.2505823592E-02
          0                 9           3            19    3     3       0.6058866276E-03      17   13    1       0.5361926346E+00      0.6088248734E+00      0.2281397796E+01      0.6058866276E-03
                                                   Max.-Head-Change                        Max.-Flux-Residual
  Residual-Control   Outer-Iter.   Inner-Iter.     Column Row Layer    Max.-Head-Change    Column Row Layer    Max.-Flux-Residual            L2-New               L2-Old           Solver-Max-Delh
          0                10           3            19    3     3       0.1453111936E-03      17   13    1       0.1490098485E+00      0.1683961443E+00      0.6088248734E+00      0.1453111936E-03
          0                11           2            19    3     3       0.3417551693E-04      17   13    1       0.4767991847E-01      0.5572996438E-01      0.1683961443E+00      0.3417551693E-04

    ------------------------------------------------
       NWT REQUIRED           11 OUTER ITERATIONS 
       AND A TOTAL OF         62 INNER ITERATIONS.
    ------------------------------------------------
                                                   Max.-Head-Change                        Max.-Flux-Residual
  Residual-Control   Outer-Iter.   Inner-Iter.     Column Row Layer    Max.-Head-Change    Column Row Layer    Max.-Flux-Residual            L2-New               L2-Old           Solver-Max-Delh
          0                 1           7            17   14     1      -0.5065526581E+00      17   14    1      -0.1026014130E+04      0.1530882336E+04      0.5572996438E-01     -0.5065526581E+00
          0                 2           6            16   16     1      -0.5731257533E-01      16   16    1      -0.1381874054E+03      0.2822818225E+03      0.1530882336E+04     -0.5731257533E-01
          0                 3           5            17   15     1      -0.4575397168E-02      17   15    1      -0.1121025593E+02      0.2141600615E+02      0.2822818225E+03     -0.4575397168E-02
          0                 4           4            12   12     1      -0.5820728449E-03      12   12    1      -0.2117613582E+01      0.3468686160E+01      0.2141600615E+02     -0.5820728449E-03
          0                 5           3            12   12     1      -0.6853882336E-04      12   13    1      -0.2668582170E+00      0.4822357376E+00      0.3468686160E+01     -0.6853882336E-04

    ------------------------------------------------
       NWT REQUIRED            5 OUTER ITERATIONS 
       AND A TOTAL OF         25 INNER ITERATIONS.
    ------------------------------------------------
                                                   Max.-Head-Change                        Max.-Flux-Residual
  Residual-Control   Outer-Iter.   Inner-Iter.     Column Row Layer    Max.-Head-Change    Column Row Layer    Max.-Flux-Residual            L2-New               L2-Old           Solver-Max-Delh
          0                 1           7            12   10     1      -0.3763020279E+00      12   10    1      -0.9323624720E+03      0.9382401973E+03      0.4822357376E+00     -0.3763020279E+00
          0                 2           7            12   11     1      -0.4965710942E+00      12   11    1      -0.9257309643E+03      0.1031013619E+04      0.9382401973E+03     -0.4965710942E+00
          0                 3           6            12   11     1       0.4048172363E-01      12   11    1       0.8854180270E+02      0.1083987396E+03      0.1031013619E+04      0.4048172363E-01
          0                 4           4            12   11     1       0.2014515459E-02      12   11    1       0.4400031400E+01      0.5008485735E+01      0.1083987396E+03      0.2014515459E-02
          0                 5           3            12   11     1       0.1005856927E-03      12   11    1       0.2200911951E+00      0.2597280742E+00      0.5008485735E+01      0.1005856927E-03
          0                 6           2            12   11     1       0.5075843392E-05      12   13    1       0.1554053463E-01      0.3464597883E-01      0.2597280742E+00      0.5075843392E-05

    ------------------------------------------------
       NWT REQUIRED            6 OUTER ITERATIONS 
       AND A TOTAL OF         29 INNER ITERATIONS.
    ------------------------------------------------
                                                   Max.-Head-Change                        Max.-Flux-Residual
  Residual-Control   Outer-Iter.   Inner-Iter.     Column Row Layer    Max.-Head-Change    Column Row Layer    Max.-Flux-Residual            L2-New               L2-Old           Solver-Max-Delh
          0                 1           6            11   11     1      -0.2429351187E-01      11   11    1      -0.3529017825E+02      0.6278469715E+02      0.3464597883E-01     -0.2429351187E-01
          0                 2           5            11   11     1       0.2098918996E-02      11   11    1       0.3522712432E+01      0.6420878982E+01      0.6278469715E+02      0.2098918996E-02
          0                 3           3            11   11     1       0.1047328519E-03      11   11    1       0.1764746599E+00      0.3715156782E+00      0.6420878982E+01      0.1047328519E-03
          0                 4           2            16   16     1      -0.1197088792E-04      16   16    1      -0.3728295106E-01      0.5683194040E-01      0.3715156782E+00     -0.1197088792E-04

    ------------------------------------------------
       NWT REQUIRED            4 OUTER ITERATIONS 
       AND A TOTAL OF         16 INNER ITERATIONS.
    ------------------------------------------------
                                                   Max.-Head-Change                        Max.-Flux-Residual
  Residual-Control   Outer-Iter.   Inner-Iter.     Column Row Layer    Max.-Head-Change    Column Row Layer    Max.-Flux-Residual            L2-New               L2-Old           Solver-Max-Delh
          0                 1           5            11   11     1      -0.1063778384E-01      12   10    1       0.2030614010E+02      0.3663032582E+02      0.5683194040E-01     -0.1063778384E-01
          0                 2           4            11   11     1       0.9185532625E-03      12   10    1      -0.2031931679E+01      0.3676023731E+01      0.3663032582E+02      0.9185532625E-03
          0                 3           3            11   11     1       0.4601421911E-04      12   10    1      -0.1013757769E+00      0.1910718437E+00      0.3676023731E+01      0.4601421911E-04

    ------------------------------------------------
       NWT REQUIRED            3 OUTER ITERATIONS 
       AND A TOTAL OF         12 INNER ITERATIONS.
    ------------------------------------------------
                                                   Max.-Head-Change                        Max.-Flux-Residual
  Residual-Control   Outer-Iter.   Inner-Iter.     Column Row Layer    Max.-Head-Change    Column Row Layer    Max.-Flux-Residual            L2-New               L2-Old           Solver-Max-Delh
          0                 1           5            12   10     1       0.1308727803E-01      12   10    1       0.2274840200E+02      0.2761723549E+02      0.1910718437E+00      0.1308727803E-01
          0                 2           4            12   10     1      -0.1131132446E-02      12   10    1      -0.2277245562E+01      0.2761754878E+01      0.2761723549E+02     -0.1131132446E-02
          0                 3           2            12   10     1      -0.5634206735E-04      12   10    1      -0.1137870137E+00      0.1421228875E+00      0.2761754878E+01     -0.5634206735E-04

    ------------------------------------------------
       NWT REQUIRED            3 OUTER ITERATIONS 
       AND A TOTAL OF         11 INNER ITERATIONS.
    ------------------------------------------------
                                                   Max.-Head-Change                        Max.-Flux-Residual
  Residual-Control   Outer-Iter.   Inner-Iter.     Column Row Layer    Max.-Head-Change    Column Row Layer    Max.-Flux-Residual            L2-New               L2-Old           Solver-Max-Delh
          0                 1           5            12   10     1       0.9017789026E-02      12   10    1       0.1528282253E+02      0.1726931520E+02      0.1421228875E+00      0.9017789026E-02
          0                 2           4            12   10     1      -0.7790533470E-03      12   10    1      -0.1529536257E+01      0.1735276031E+01      0.1726931520E+02     -0.7790533470E-03
          0                 3           2            12   10     1      -0.3890123084E-04      12   10    1      -0.7671535737E-01      0.9171104935E-01      0.1735276031E+01     -0.3890123084E-04

    ------------------------------------------------
       NWT REQUIRED            3 OUTER ITERATIONS 
       AND A TOTAL OF         11 INNER ITERATIONS.
    ------------------------------------------------
                                                   Max.-Head-Change                        Max.-Flux-Residual
  Residual-Control   Outer-Iter.   Inner-Iter.     Column Row Layer    Max.-Head-Change    Column Row Layer    Max.-Flux-Residual            L2-New               L2-Old           Solver-Max-Delh
          0                 1           5            12   10     1       0.4786329274E-02      12   10    1       0.8120003640E+01      0.9011044351E+01      0.9171104935E-01      0.4786329274E-02
          0                 2           3            12   10     1      -0.4137022770E-03      12   10    1      -0.8125263092E+00      0.9115546712E+00      0.9011044351E+01     -0.4137022770E-03
          0                 3           2            12   10     1      -0.2069572307E-04      12   10    1      -0.4052589874E-01      0.5359405648E-01      0.9115546712E+00     -0.2069572307E-04

    ------------------------------------------------
       NWT REQUIRED            3 OUTER ITERATIONS 
       AND A TOTAL OF         10 INNER ITERATIONS.
    ------------------------------------------------
                                                   Max.-Head-Change                        Max.-Flux-Residual
  Residual-Control   Outer-Iter.   Inner-Iter.     Column Row Layer    Max.-Head-Change    Column Row Layer    Max.-Flux-Residual            L2-New               L2-Old           Solver-Max-Delh
          0                 1           4            12   10     1       0.2078524328E-02      12   10    1       0.3592163993E+01      0.4112629618E+01      0.5359405648E-01      0.2078524328E-02
          0                 2           3            12   10     1      -0.1795854015E-03      12   10    1      -0.3592499217E+00      0.4209551255E+00      0.4112629618E+01     -0.1795854015E-03
          0                 3           2            12   10     1      -0.8624238320E-05      12   13    1       0.2036366728E-01      0.3944659084E-01      0.4209551255E+00     -0.8624238320E-05

    ------------------------------------------------
       NWT REQUIRED            3 OUTER ITERATIONS 
       AND A TOTAL OF          9 INNER ITERATIONS.
    ------------------------------------------------
                                                   Max.-Head-Change                        Max.-Flux-Residual
  Residual-Control   Outer-Iter.   Inner-Iter.     Column Row Layer    Max.-Head-Change    Column Row Layer    Max.-Flux-Residual            L2-New               L2-Old           Solver-Max-Delh
          0                 1           4            12   10     1       0.7214722516E-03      12   10    1       0.1300334430E+01      0.1800879665E+01      0.3944659084E-01      0.7214722516E-03
          0                 2           3            12   10     1      -0.6240605921E-04      12   10    1      -0.1302038210E+00      0.1849905376E+00      0.1800879665E+01     -0.6240605921E-04

    ------------------------------------------------
       NWT REQUIRED            2 OUTER ITERATIONS 
       AND A TOTAL OF          7 INNER ITERATIONS.
    ------------------------------------------------
                                                   Max.-Head-Change                        Max.-Flux-Residual
  Residual-Control   Outer-Iter.   Inner-Iter.     Column Row Layer    Max.-Head-Change    Column Row Layer    Max.-Flux-Residual            L2-New               L2-Old           Solver-Max-Delh
          0                 1           3            11   11     1       0.4082885281E-03      11   11    1       0.6668357689E+00      0.8648873299E+00      0.1849905376E+00      0.4082885281E-03
          0                 2           2            11   11     1      -0.3464385707E-04      11   11    1      -0.6662962778E-01      0.9001724329E-01      0.8648873299E+00     -0.3464385707E-04

    ------------------------------------------------
       NWT REQUIRED            2 OUTER ITERATIONS 
       AND A TOTAL OF          5 INNER ITERATIONS.
    ------------------------------------------------

 OUTPUT CONTROL FOR STRESS PERIOD      6   TIME STEP     1
    SAVE BUDGET
 UBDSV1 SAVING "         STORAGE" ON UNIT  70 AT TIME STEP    1, STRESS PERIOD   6
 UBDSV2 SAVING "   CONSTANT HEAD" ON UNIT  70 AT TIME STEP    1, STRESS PERIOD   6
 UBDSV1 SAVING "FLOW RIGHT FACE " ON UNIT  70 AT TIME STEP    1, STRESS PERIOD   6
 UBDSV1 SAVING "FLOW FRONT FACE " ON UNIT  70 AT TIME STEP    1, STRESS PERIOD   6
 UBDSV1 SAVING "FLOW LOWER FACE " ON UNIT  70 AT TIME STEP    1, STRESS PERIOD   6
 UBDSV4 SAVING " HEAD DEP BOUNDS" ON UNIT  70 AT TIME STEP    1, STRESS PERIOD   6
 UBDSV4 SAVING "  STREAM LEAKAGE" ON UNIT  70 AT TIME STEP    1, STRESS PERIOD   6



 UBDSV4 SAVING "             MNW" ON UNIT  70 AT TIME STEP    1, STRESS PERIOD   6
 
 
 
 
 
 
 
 
 UBDSV3 SAVING "FARM  NET  RECH." ON UNIT  70 AT TIME STEP    1, STRESS PERIOD   6
 UBDSV4 SAVING " GHOST-NODE FLUX" ON UNIT  70 AT TIME STEP    1, STRESS PERIOD   6
 UBDSV4 SAVING " GHOST-NODE FLUX" ON UNIT  70 AT TIME STEP    1, STRESS PERIOD   6
 UBDSV4 SAVING " GHOST-NODE FLUX" ON UNIT  70 AT TIME STEP    1, STRESS PERIOD   6
 
 SOLVING FOR HEAD 
                                                   Max.-Head-Change                        Max.-Flux-Residual
  Residual-Control   Outer-Iter.   Inner-Iter.     Column Row Layer    Max.-Head-Change    Column Row Layer    Max.-Flux-Residual            L2-New               L2-Old           Solver-Max-Delh
          0                 1           8            19    3     4       0.4881270201E+01      12   11    1       0.1664919370E+04      0.3258970003E+04      0.9001724329E-01      0.4881270201E+01
          0                 2           8            19    3     4      -0.7273802391E+00      12   11    1      -0.1795648798E+04      0.2711550753E+04      0.3258970003E+04     -0.7273802391E+00
          0                 3           6            17   14     1      -0.1360762009E+00      17   14    1      -0.7410659869E+03      0.8422195891E+03      0.2711550753E+04     -0.1360762009E+00
          0                 4           6            17   13     1      -0.7551534077E-01      17   13    1      -0.2718617681E+03      0.2769286578E+03      0.8422195891E+03     -0.7551534077E-01
          0                 5           5            17   13     1      -0.1570117693E-01      17   13    1      -0.5533974130E+02      0.5636519061E+02      0.2769286578E+03     -0.1570117693E-01
          0                 6           4            17   13     1      -0.2737532091E-02      17   13    1      -0.9282068064E+01      0.1017248689E+02      0.5636519061E+02     -0.2737532091E-02
          0                 7           4            17   13     1      -0.4543038143E-03      17   13    1      -0.1470216047E+01      0.1933647095E+01      0.1017248689E+02     -0.4543038143E-03
          0                 8           3            17   13     1      -0.7356370825E-04      17   13    1      -0.2224480491E+00      0.4159762624E+00      0.1933647095E+01     -0.7356370825E-04

    ------------------------------------------------
       NWT REQUIRED            8 OUTER ITERATIONS 
       AND A TOTAL OF         44 INNER ITERATIONS.
    ------------------------------------------------
                                                   Max.-Head-Change                        Max.-Flux-Residual
  Residual-Control   Outer-Iter.   Inner-Iter.     Column Row Layer    Max.-Head-Change    Column Row Layer    Max.-Flux-Residual            L2-New               L2-Old           Solver-Max-Delh
          0                 1           7            17   14     1      -0.5165087925E+00      17   14    1      -0.1080773085E+04      0.1582103687E+04      0.4159762624E+00     -0.5165087925E+00
          0                 2           6            16   16     1      -0.8848890510E-01      16   16    1      -0.2368008593E+03      0.3294237119E+03      0.1582103687E+04     -0.8848890510E-01
          0                 3           4            16   16     1      -0.3169299864E-02      17   15    1       0.1210550643E+02      0.2155577029E+02      0.3294237119E+03     -0.3169299864E-02
          0                 4           3            12   12     1      -0.3464212517E-03      12   12    1      -0.1353083399E+01      0.1987955466E+01      0.2155577029E+02     -0.3464212517E-03
          0                 5           2            12   12     1      -0.3724547336E-04      12   13    1      -0.1239977232E+00      0.2191047133E+00      0.1987955466E+01     -0.3724547336E-04

    ------------------------------------------------
       NWT REQUIRED            5 OUTER ITERATIONS 
       AND A TOTAL OF         22 INNER ITERATIONS.
    ------------------------------------------------
                                                   Max.-Head-Change                        Max.-Flux-Residual
  Residual-Control   Outer-Iter.   Inner-Iter.     Column Row Layer    Max.-Head-Change    Column Row Layer    Max.-Flux-Residual            L2-New               L2-Old           Solver-Max-Delh
          0                 1           7            12   10     1      -0.3466916924E+00      12   10    1      -0.8579635076E+03      0.8733760779E+03      0.2191047133E+00     -0.3466916924E+00
          0                 2           7            12   11     1      -0.4410444153E+00      12   11    1      -0.8434993300E+03      0.9361769501E+03      0.8733760779E+03     -0.4410444153E+00
          0                 3           6            12   11     1       0.3658073185E-01      12   11    1       0.8103778768E+02      0.9399801137E+02      0.9361769501E+03      0.3658073185E-01
          0                 4           4            12   11     1       0.1821329125E-02      12   11    1       0.4029354333E+01      0.4677233750E+01      0.9399801137E+02      0.1821329125E-02
          0                 5           3            12   11     1       0.9154156341E-04      12   11    1       0.2016447506E+00      0.2401940835E+00      0.4677233750E+01      0.9154156341E-04

    ------------------------------------------------
       NWT REQUIRED            5 OUTER ITERATIONS 
       AND A TOTAL OF         27 INNER ITERATIONS.
    ------------------------------------------------
                                                   Max.-Head-Change                        Max.-Flux-Residual
  Residual-Control   Outer-Iter.   Inner-Iter.     Column Row Layer    Max.-Head-Change    Column Row Layer    Max.-Flux-Residual            L2-New               L2-Old           Solver-Max-Delh
          0                 1           6             9    9     1       0.3491437859E-01       9    9    1       0.3657135086E+02      0.7151614702E+02      0.2401940835E+00      0.3491437859E-01
          0                 2           5             9    9     1      -0.2946432590E-02       9    9    1      -0.3661561348E+01      0.7288360269E+01      0.7151614702E+02     -0.2946432590E-02
          0                 3           3             9    9     1      -0.1532233703E-03       9    9    1      -0.1834399496E+00      0.4141928292E+00      0.7288360269E+01     -0.1532233703E-03
          0                 4           2             2    8     3      -0.1058014044E-04       2    8    1      -0.2005665505E-01      0.4735024798E-01      0.4141928292E+00     -0.1058014044E-04

    ------------------------------------------------
       NWT REQUIRED            4 OUTER ITERATIONS 
       AND A TOTAL OF         16 INNER ITERATIONS.
    ------------------------------------------------
                                                   Max.-Head-Change                        Max.-Flux-Residual
  Residual-Control   Outer-Iter.   Inner-Iter.     Column Row Layer    Max.-Head-Change    Column Row Layer    Max.-Flux-Residual            L2-New               L2-Old           Solver-Max-Delh
          0                 1           6             6    8     1       0.1340322875E-01      12   10    1       0.2144378189E+02      0.3518991173E+02      0.4735024798E-01      0.1340322875E-01
          0                 2           4             6    8     1      -0.1156275220E-02      12   10    1      -0.2146175136E+01      0.3528832416E+01      0.3518991173E+02     -0.1156275220E-02
          0                 3           3             6    8     1      -0.5879661052E-04      12   10    1      -0.1075241421E+00      0.1835848374E+00      0.3528832416E+01     -0.5879661052E-04

    ------------------------------------------------
       NWT REQUIRED            3 OUTER ITERATIONS 
       AND A TOTAL OF         13 INNER ITERATIONS.
    ------------------------------------------------
                                                   Max.-Head-Change                        Max.-Flux-Residual
  Residual-Control   Outer-Iter.   Inner-Iter.     Column Row Layer    Max.-Head-Change    Column Row Layer    Max.-Flux-Residual            L2-New               L2-Old           Solver-Max-Delh
          0                 1           5            12   10     1       0.1330722248E-01      12   10    1       0.2173469183E+02      0.2702789798E+02      0.1835848374E+00      0.1330722248E-01
          0                 2           4            12   10     1      -0.1149804889E-02      12   10    1      -0.2175596379E+01      0.2708926989E+01      0.2702789798E+02     -0.1149804889E-02
          0                 3           3            12   10     1      -0.5761553293E-04      12   10    1      -0.1083442284E+00      0.1408298224E+00      0.2708926989E+01     -0.5761553293E-04

    ------------------------------------------------
       NWT REQUIRED            3 OUTER ITERATIONS 
       AND A TOTAL OF         12 INNER ITERATIONS.
    ------------------------------------------------
                                                   Max.-Head-Change                        Max.-Flux-Residual
  Residual-Control   Outer-Iter.   Inner-Iter.     Column Row Layer    Max.-Head-Change    Column Row Layer    Max.-Flux-Residual            L2-New               L2-Old           Solver-Max-Delh
          0                 1           5            12   10     1       0.8466110531E-02      12   10    1       0.1389052999E+02      0.1686209740E+02      0.1408298224E+00      0.8466110531E-02
          0                 2           4            12   10     1      -0.7317326713E-03      12   10    1      -0.1389917782E+01      0.1703355878E+01      0.1686209740E+02     -0.7317326713E-03
          0                 3           2            12   10     1      -0.3616493491E-04      12   10    1      -0.6948993431E-01      0.9214726741E-01      0.1703355878E+01     -0.3616493491E-04

    ------------------------------------------------
       NWT REQUIRED            3 OUTER ITERATIONS 
       AND A TOTAL OF         11 INNER ITERATIONS.
    ------------------------------------------------
                                                   Max.-Head-Change                        Max.-Flux-Residual
  Residual-Control   Outer-Iter.   Inner-Iter.     Column Row Layer    Max.-Head-Change    Column Row Layer    Max.-Flux-Residual            L2-New               L2-Old           Solver-Max-Delh
          0                 1           4            12   10     1       0.4144830088E-02      12   10    1       0.7029341571E+01      0.8295352717E+01      0.9214726741E-01      0.4144830088E-02
          0                 2           3            12   10     1      -0.3580274526E-03      12   10    1      -0.7033411916E+00      0.8467563461E+00      0.8295352717E+01     -0.3580274526E-03
          0                 3           2            12   10     1      -0.1767939765E-04      12   10    1      -0.3511003131E-01      0.4934253815E-01      0.8467563461E+00     -0.1767939765E-04

    ------------------------------------------------
       NWT REQUIRED            3 OUTER ITERATIONS 
       AND A TOTAL OF          9 INNER ITERATIONS.
    ------------------------------------------------
                                                   Max.-Head-Change                        Max.-Flux-Residual
  Residual-Control   Outer-Iter.   Inner-Iter.     Column Row Layer    Max.-Head-Change    Column Row Layer    Max.-Flux-Residual            L2-New               L2-Old           Solver-Max-Delh
          0                 1           4            12   10     1       0.1610302437E-02      12   10    1       0.2917221457E+01      0.3384541743E+01      0.4934253815E-01      0.1610302437E-02
          0                 2           3            12   10     1      -0.1387860907E-03      12   10    1      -0.2915126894E+00      0.3550795577E+00      0.3384541743E+01     -0.1387860907E-03
          0                 3           2            12   10     1      -0.7025233641E-05      12   10    1      -0.1468917221E-01      0.2978089368E-01      0.3550795577E+00     -0.7025233641E-05

    ------------------------------------------------
       NWT REQUIRED            3 OUTER ITERATIONS 
       AND A TOTAL OF          9 INNER ITERATIONS.
    ------------------------------------------------
                                                   Max.-Head-Change                        Max.-Flux-Residual
  Residual-Control   Outer-Iter.   Inner-Iter.     Column Row Layer    Max.-Head-Change    Column Row Layer    Max.-Flux-Residual            L2-New               L2-Old           Solver-Max-Delh
          0                 1           4             9    9     2       0.5292671126E-03      12   10    1       0.9623217779E+00      0.1429427690E+01      0.2978089368E-01      0.5292671126E-03
          0                 2           2             9    9     2      -0.4575379785E-04      12   10    1      -0.9634440619E-01      0.1573330061E+00      0.1429427690E+01     -0.4575379785E-04

    ------------------------------------------------
       NWT REQUIRED            2 OUTER ITERATIONS 
       AND A TOTAL OF          6 INNER ITERATIONS.
    ------------------------------------------------
                                                   Max.-Head-Change                        Max.-Flux-Residual
  Residual-Control   Outer-Iter.   Inner-Iter.     Column Row Layer    Max.-Head-Change    Column Row Layer    Max.-Flux-Residual            L2-New               L2-Old           Solver-Max-Delh
          0                 1           3             9    9     2       0.4575174966E-03       9    9    1       0.4627666695E+00      0.8130306276E+00      0.1573330061E+00      0.4575174966E-03
          0                 2           2             9    9     2      -0.3948410527E-04       9    9    1      -0.4628830586E-01      0.8822233989E-01      0.8130306276E+00     -0.3948410527E-04

    ------------------------------------------------
       NWT REQUIRED            2 OUTER ITERATIONS 
       AND A TOTAL OF          5 INNER ITERATIONS.
    ------------------------------------------------

 OUTPUT CONTROL FOR STRESS PERIOD      6   TIME STEP     2
    PRINT BUDGET
    SAVE HEAD FOR ALL LAYERS
    SAVE BUDGET
 UBDSV1 SAVING "         STORAGE" ON UNIT  70 AT TIME STEP    2, STRESS PERIOD   6
 UBDSV2 SAVING "   CONSTANT HEAD" ON UNIT  70 AT TIME STEP    2, STRESS PERIOD   6
 UBDSV1 SAVING "FLOW RIGHT FACE " ON UNIT  70 AT TIME STEP    2, STRESS PERIOD   6
 UBDSV1 SAVING "FLOW FRONT FACE " ON UNIT  70 AT TIME STEP    2, STRESS PERIOD   6
 UBDSV1 SAVING "FLOW LOWER FACE " ON UNIT  70 AT TIME STEP    2, STRESS PERIOD   6
 UBDSV4 SAVING " HEAD DEP BOUNDS" ON UNIT  70 AT TIME STEP    2, STRESS PERIOD   6
 UBDSV4 SAVING "  STREAM LEAKAGE" ON UNIT  70 AT TIME STEP    2, STRESS PERIOD   6



 UBDSV4 SAVING "             MNW" ON UNIT  70 AT TIME STEP    2, STRESS PERIOD   6
 
 
 
 
 
 
 
 
 UBDSV3 SAVING "FARM  NET  RECH." ON UNIT  70 AT TIME STEP    2, STRESS PERIOD   6
 UBDSV4 SAVING " GHOST-NODE FLUX" ON UNIT  70 AT TIME STEP    2, STRESS PERIOD   6
 UBDSV4 SAVING " GHOST-NODE FLUX" ON UNIT  70 AT TIME STEP    2, STRESS PERIOD   6
 UBDSV4 SAVING " GHOST-NODE FLUX" ON UNIT  70 AT TIME STEP    2, STRESS PERIOD   6

 HEAD WILL BE SAVED ON UNIT   22 AT END OF TIME STEP     2, STRESS PERIOD      6
1
  VOLUMETRIC BUDGET FOR ENTIRE MODEL AT END OF TIME STEP    2 IN STRESS PERIOD      6
  ------------------------------------------------------------------------------

     CUMULATIVE VOLUMES      L**3       RATES FOR THIS TIME STEP      L**3/T
     ------------------                 ------------------------

           IN:                                      IN:
           ---                                      ---
             STORAGE =    10873633.0000               STORAGE =       20932.1758
       CONSTANT HEAD =           0.0000         CONSTANT HEAD =           0.0000
     HEAD DEP BOUNDS =     1121052.0000       HEAD DEP BOUNDS =        8315.3301
      STREAM LEAKAGE =     3616763.2500        STREAM LEAKAGE =       18122.1543
                 MNW =       17389.5254                   MNW =          69.5511
          FARM WELLS =           0.0000            FARM WELLS =           0.0000
    FARM  NET  RECH. =     4055978.2500      FARM  NET  RECH. =       20724.2500
     GHOST-NODE FLUX =      737973.4375       GHOST-NODE FLUX =        7331.3662

            TOTAL IN =    20422790.0000              TOTAL IN =       75494.8281

          OUT:                                     OUT:
          ----                                     ----
             STORAGE =     3039161.7500               STORAGE =        6293.8892
       CONSTANT HEAD =           0.0000         CONSTANT HEAD =           0.0000
     HEAD DEP BOUNDS =     3244726.0000       HEAD DEP BOUNDS =       16289.7148
      STREAM LEAKAGE =      298391.7812        STREAM LEAKAGE =          32.5156
                 MNW =     1752157.1250                   MNW =       15069.5508
          FARM WELLS =     1868069.3750            FARM WELLS =       22000.0000
    FARM  NET  RECH. =      814531.1250      FARM  NET  RECH. =        5405.6699
     GHOST-NODE FLUX =     9405758.0000       GHOST-NODE FLUX =       10403.5254

           TOTAL OUT =    20422796.0000             TOTAL OUT =       75494.8672

            IN - OUT =          -6.0000              IN - OUT =      -3.9062E-02

 PERCENT DISCREPANCY =          -0.00     PERCENT DISCREPANCY =          -0.00






          TIME SUMMARY AT END OF TIME STEP     2 IN STRESS PERIOD      6
                    SECONDS     MINUTES      HOURS       DAYS        YEARS
                    -----------------------------------------------------------
   TIME STEP LENGTH 1.31414E+06  21902.      365.04      15.210     4.16427E-02
 STRESS PERIOD TIME 2.62829E+06  43805.      730.08      30.420     8.32854E-02
         TOTAL TIME 1.57697E+07 2.62829E+05  4380.5      182.52     0.49971    
1
1
                            STRESS PERIOD NO.      7, LENGTH =   30.42000    
                            -----------------------------------------------

                              NUMBER OF TIME STEPS =     2

                               MULTIPLIER FOR DELT =     1.000

                            INITIAL TIME STEP SIZE =   15.21000    

 REUSING NON-PARAMETER GHB CELLS FROM LAST STRESS PERIOD

     92 GHB CELLS

 REUSING STREAM SEGMENT DATA FROM LAST STRESS PERIOD

 REUSING MNW7  FROM LAST STRESS PERIOD

 Parameter:  WELLS1
 WELL NO. LAYER    ROW    COL  F-WELL ID    FARM ID         QMAX         QMAXRESET       
 ----------------------------------------------------------------------------------------
       1      1      5      6          1          1      5.0000E+03              0
       2      1      8      7          2          1      5.0000E+03              0
       3      1      8      9          3          1      5.0000E+03              0
       4      1      5      9          4          2      3.0000E+03              0
       5      1      6     10          5          2      2.0000E+03              0
       6      1      7     11          6          2      1.0000E+03              0
       7      1     18      3          7          3      2.0000E+03              0
       8      1     21      3          8          3      4.0000E+03              0
       9      1     18     19          9          4      3.0000E+03              0
      10      1     21     19         10          4      5.0000E+03              0
      11      0      6      2        -11          5      5.0000E+03              1
      12      0      8      2        -12          5      5.0000E+03              1
      13      0     10      2        -13          5      5.0000E+03              1
      14      0      3     19        -14          6      1.0000E+04              1
      15      0      6     17        -15          6      6.0000E+03              1

 NUMBER OF ACTIVE FARM WELLS:       15

 THE SINGLE LAYER FMP- OR MNW- WELL IN ROW      8 AND COLUMN      7 IS LOCATED IN AN INACTIVE CELL (IBOUND=0) AND HAS BEEN EXCLUDED FROM THE TOTAL MAXIMUM CAPACITY PER FARM

 THE SINGLE LAYER FMP- OR MNW- WELL IN ROW      8 AND COLUMN      9 IS LOCATED IN AN INACTIVE CELL (IBOUND=0) AND HAS BEEN EXCLUDED FROM THE TOTAL MAXIMUM CAPACITY PER FARM

 THE SINGLE LAYER FMP- OR MNW- WELL IN ROW      6 AND COLUMN     10 IS LOCATED IN AN INACTIVE CELL (IBOUND=0) AND HAS BEEN EXCLUDED FROM THE TOTAL MAXIMUM CAPACITY PER FARM

 THE SINGLE LAYER FMP- OR MNW- WELL IN ROW      7 AND COLUMN     11 IS LOCATED IN AN INACTIVE CELL (IBOUND=0) AND HAS BEEN EXCLUDED FROM THE TOTAL MAXIMUM CAPACITY PER FARM

 FARM-ID  NUMBER OF WELLS PER FARM  TOTAL MAX.CAPACITY PER FARM
       1                         1                    5000.0000
       2                         1                    3000.0000
       3                         2                    6000.0000
       4                         2                    8000.0000
       5                         3                   15000.0000
       6                         2                   16000.0000
       7                         0                       0.0000
       8                         0                       0.0000

 READING LIST ON UNIT   20 WITH FILE NAME: C:\MF_OWHM_Release_Package\MF_OWHM_v1_0\examples\test-run-owhm-lgr\fmp-lgr-nwt\DATA_FMP\OFE.in
 LIST SCALING FACTOR= 0.90000    
 (THE SCALE FACTOR WAS APPLIED TO FIELDS   2 -   7)

 Reading list on unit   30

 Reading list on unit   40

  REF. EVAPOTRANSPIRATION =  6.920000E-03

 READING LIST ON UNIT   50 WITH FILE NAME: C:\MF_OWHM_Release_Package\MF_OWHM_v1_0\examples\test-run-owhm-lgr\fmp-lgr-nwt\DATA_FMP\FTE.in

Transpiratory and Evaporative Fractions of Crop Consumptive Use
    % Transpiration % Evap. for Precip. % Evap. for Irrig.
    1          0.000          1.000          0.500
    2          0.950          0.050          0.050
    3          0.000          1.000          1.000
    4          0.125          0.875          0.875
    5          0.927          0.073          0.000
    6          0.900          0.100          0.000

 READING LIST ON UNIT   60 WITH FILE NAME: C:\MF_OWHM_Release_Package\MF_OWHM_v1_0\examples\test-run-owhm-lgr\fmp-lgr-nwt\DATA_FMP\INEFFSW.in

FRACTIONS OF IN-EFFICIENT LOSSES TO SW-RUNOFF FROM 
     PRECIPITATION:  IRRIGATION:
    1          0.500          0.600
    2          0.400          0.300
    3          0.600          0.500
    4          0.700          0.600
    5          0.500          0.000
    6          0.300          0.000

       PRECIPITATION FLUX =  3.000000E-05

 OPENING FILE WITH FILENAME: ./DATA_FMP/NRDV.in
 AND UNIT NUMBER: -153
 READING SCALE FACTOR LIST ON UNIT   80 ASSOCIATED WITH FILE: C:\MF_OWHM_Release_Package\MF_OWHM_v1_0\examples\test-run-owhm-lgr\fmp-lgr-nwt\DATA_FMP\NRDV.in
 FIELD     SCALE FACTOR
     1       1.0000    
     2       6.0000    
     3       1.0000    
     4       1.0000    

UNRANKED LIST OF NON-ROUTED DELIVERIES TO FARMS [L3]:
TYPE:             1

FARM-ID  VOLUME:
      1   9.000E+04
      2   9.000E+04
      3   1.200E+05
      4   6.000E+04
      5   6.000E+04
      6   1.200E+05
      7   0.000E+00
      8   0.000E+00

FARM-ID  PRIORITY RANK OF NRD-TYPE:
      1           1
      2           1
      3           1
      4           1
      5           1
      6           1
      7           1
      8           1

FARM-ID  USE-FLAG:
         0 = SUFFICIENT USE
         1 = ABSOLUTE USE (RECHARGE SURPLUS BACK INTO CANAL)
         2 = ABSOLUTE USE (INJECT SURPLUS INTO FARM-WELLS)
      1           0
      2           0
      3           0
      4           0
      5           0
      6           0
      7           0
      8           0

LIST OF NON-ROUTED DELIVERIES IN RANKED SEQUENCE [L3/T]:

FARM-ID  RATE:
      1   2.959E+03
      2   2.959E+03
      3   3.945E+03
      4   1.972E+03
      5   1.972E+03
      6   3.945E+03
      7   0.000E+00
      8   0.000E+00

FARM-ID  USE-FLAG:
         0 = SUFFICIENT USE
         1 = ABSOLUTE USE (RECHARGE SURPLUS BACK INTO CANAL)
         2 = ABSOLUTE USE (INJECT SURPLUS INTO FARM-WELLS)
      1           0
      2           0
      3           0
      4           0
      5           0
      6           0
      7           0
      8           0

SURFACE-WATER FARM ALLOTMENT HEIGHT [L]:   0.200
 
 SOLVING FOR HEAD 
                                                   Max.-Head-Change                        Max.-Flux-Residual
  Residual-Control   Outer-Iter.   Inner-Iter.     Column Row Layer    Max.-Head-Change    Column Row Layer    Max.-Flux-Residual            L2-New               L2-Old           Solver-Max-Delh
          0                 1           9            19   21     1       0.2173651403E+01       6    5    1       0.5001131146E+04      0.1083258686E+05      0.8822233989E-01      0.2173651403E+01
          0                 2           9             6    5     1      -0.2004039936E+01       6    5    1      -0.5534599822E+04      0.8884842405E+04      0.1083258686E+05     -0.2004039936E+01
          1                 2           0             6    5     1      -0.1402827931E+01       9    5    1      -0.8176346826E+04      0.9869296775E+04      0.8884842405E+04     -0.2004039936E+01
          0                 3           8            19   21     1      -0.2166629284E+01      19   21    1      -0.4831229562E+04      0.7234025851E+04      0.9869296775E+04     -0.2166629284E+01
          0                 4           7            17   14     1      -0.2022197575E+00      17   14    1      -0.5011687234E+03      0.9981331878E+03      0.7234025851E+04     -0.2022197575E+00
          0                 5           6             2    8     3       0.4287731953E-01       2    8    1       0.8645369983E+02      0.1750043884E+03      0.9981331878E+03      0.4287731953E-01
          0                 6           6             2    8     3       0.1313883027E-01       2    8    1       0.2679570699E+02      0.4762423207E+02      0.1750043884E+03      0.1313883027E-01
          0                 7           5             2    8     3       0.4012586112E-02       2    8    1       0.8244931889E+01      0.1447793633E+02      0.4762423207E+02      0.4012586112E-02
          0                 8           4             2    8     3       0.1222015390E-02       2    8    1       0.2524167666E+01      0.4643516873E+01      0.1447793633E+02      0.1222015390E-02
          0                 9           4             2    8     3       0.3717640667E-03       2    8    1       0.7701072597E+00      0.1532286325E+01      0.4643516873E+01      0.3717640667E-03
                                                   Max.-Head-Change                        Max.-Flux-Residual
  Residual-Control   Outer-Iter.   Inner-Iter.     Column Row Layer    Max.-Head-Change    Column Row Layer    Max.-Flux-Residual            L2-New               L2-Old           Solver-Max-Delh
          0                10           3             2    8     3       0.1126157497E-03      15   20    1      -0.2347569618E+00      0.5177268247E+00      0.1532286325E+01      0.1126157497E-03
          0                11           3             2    8     3       0.3441943430E-04      15   20    1      -0.8927065728E-01      0.1792663846E+00      0.5177268247E+00      0.3441943430E-04

    ------------------------------------------------
       NWT REQUIRED           11 OUTER ITERATIONS 
       AND A TOTAL OF         64 INNER ITERATIONS.
    ------------------------------------------------
                                                   Max.-Head-Change                        Max.-Flux-Residual
  Residual-Control   Outer-Iter.   Inner-Iter.     Column Row Layer    Max.-Head-Change    Column Row Layer    Max.-Flux-Residual            L2-New               L2-Old           Solver-Max-Delh
          0                 1           8             9   10     1      -0.5662535072E+00      17   15    1      -0.1094645829E+04      0.1768229775E+04      0.1792663846E+00     -0.5662535072E+00
          0                 2           7            12   11     1      -0.4119596153E+00      12   11    1      -0.7776331292E+03      0.8715667022E+03      0.1768229775E+04     -0.4119596153E+00
          0                 3           6            12   11     1       0.3431173392E-01      12   11    1       0.7497473100E+02      0.8535207318E+02      0.8715667022E+03      0.3431173392E-01
          0                 4           4            12   11     1       0.1707298324E-02      12   11    1       0.3729565553E+01      0.4344909125E+01      0.8535207318E+02      0.1707298324E-02
          0                 5           3            12   11     1       0.8523826750E-04      12   11    1       0.1865021038E+00      0.2770577581E+00      0.4344909125E+01      0.8523826750E-04

    ------------------------------------------------
       NWT REQUIRED            5 OUTER ITERATIONS 
       AND A TOTAL OF         28 INNER ITERATIONS.
    ------------------------------------------------
                                                   Max.-Head-Change                        Max.-Flux-Residual
  Residual-Control   Outer-Iter.   Inner-Iter.     Column Row Layer    Max.-Head-Change    Column Row Layer    Max.-Flux-Residual            L2-New               L2-Old           Solver-Max-Delh
          0                 1           7             9    9     1       0.2424229600E+00       9    9    1       0.2505669356E+03      0.4593270973E+03      0.2770577581E+00      0.2424229600E+00
          0                 2           6             9    9     1      -0.2103033824E-01       9    9    1      -0.2525047409E+02      0.4612391031E+02      0.4593270973E+03     -0.2103033824E-01
          0                 3           4             9    9     1      -0.1053198158E-02       9    9    1      -0.1264044807E+01      0.2346229557E+01      0.4612391031E+02     -0.1053198158E-02
          0                 4           3             9    9     1      -0.5297953097E-04       2    8    1      -0.8989826101E-01      0.1787730366E+00      0.2346229557E+01     -0.5297953097E-04

    ------------------------------------------------
       NWT REQUIRED            4 OUTER ITERATIONS 
       AND A TOTAL OF         20 INNER ITERATIONS.
    ------------------------------------------------
                                                   Max.-Head-Change                        Max.-Flux-Residual
  Residual-Control   Outer-Iter.   Inner-Iter.     Column Row Layer    Max.-Head-Change    Column Row Layer    Max.-Flux-Residual            L2-New               L2-Old           Solver-Max-Delh
          0                 1           7             9    9     1       0.1214862870E+00       9    9    1       0.1127163669E+03      0.2155903177E+03      0.1787730366E+00      0.1214862870E+00
          0                 2           5             9    9     1      -0.1051787936E-01       9    9    1      -0.1132396801E+02      0.2162978874E+02      0.2155903177E+03     -0.1051787936E-01
          0                 3           4             9    9     1      -0.5267894321E-03      12   20    1      -0.5988881873E+00      0.1252132511E+01      0.2162978874E+02     -0.5267894321E-03
          0                 4           3             9    9     1      -0.2669037066E-04       2    8    1      -0.4640788760E-01      0.9614525231E-01      0.1252132511E+01     -0.2669037066E-04

    ------------------------------------------------
       NWT REQUIRED            4 OUTER ITERATIONS 
       AND A TOTAL OF         19 INNER ITERATIONS.
    ------------------------------------------------
                                                   Max.-Head-Change                        Max.-Flux-Residual
  Residual-Control   Outer-Iter.   Inner-Iter.     Column Row Layer    Max.-Head-Change    Column Row Layer    Max.-Flux-Residual            L2-New               L2-Old           Solver-Max-Delh
          0                 1           6             7    9     1       0.3499790448E-01       7    9    1       0.3856380833E+02      0.7731215414E+02      0.9614525231E-01      0.3499790448E-01
          0                 2           5             7    9     1      -0.3024338779E-02       7    9    1      -0.3862839122E+01      0.7833501662E+01      0.7731215414E+02     -0.3024338779E-02
          0                 3           3            12   20     1      -0.3041658884E-03      12   20    1      -0.7943294073E+00      0.8905476688E+00      0.7833501662E+01     -0.3041658884E-03
          0                 4           2            12   20     1      -0.1470074718E-04      12   20    1      -0.3992599517E-01      0.6893420845E-01      0.8905476688E+00     -0.1470074718E-04

    ------------------------------------------------
       NWT REQUIRED            4 OUTER ITERATIONS 
       AND A TOTAL OF         16 INNER ITERATIONS.
    ------------------------------------------------
                                                   Max.-Head-Change                        Max.-Flux-Residual
  Residual-Control   Outer-Iter.   Inner-Iter.     Column Row Layer    Max.-Head-Change    Column Row Layer    Max.-Flux-Residual            L2-New               L2-Old           Solver-Max-Delh
          0                 1           5             9    9     2      -0.1375796837E-01       9    9    1      -0.1625839367E+02      0.3151944267E+02      0.6893420845E-01     -0.1375796837E-01
          0                 2           4             9    9     2       0.1188844941E-02       9    9    1       0.1626205329E+01      0.3305236159E+01      0.3151944267E+02      0.1188844941E-02
          0                 3           3            12   20     1      -0.2705986179E-03      12   20    1      -0.7115807437E+00      0.7311373210E+00      0.3305236159E+01     -0.2705986179E-03
          0                 4           2            12   20     1      -0.1425966951E-04      12   20    1      -0.3513297968E-01      0.4966506980E-01      0.7311373210E+00     -0.1425966951E-04

    ------------------------------------------------
       NWT REQUIRED            4 OUTER ITERATIONS 
       AND A TOTAL OF         14 INNER ITERATIONS.
    ------------------------------------------------
                                                   Max.-Head-Change                        Max.-Flux-Residual
  Residual-Control   Outer-Iter.   Inner-Iter.     Column Row Layer    Max.-Head-Change    Column Row Layer    Max.-Flux-Residual            L2-New               L2-Old           Solver-Max-Delh
          0                 1           5             9    9     2      -0.1471871326E-01       9    9    1      -0.1779131439E+02      0.2100139007E+02      0.4966506980E-01     -0.1471871326E-01
          0                 2           4             9    9     2       0.1271506838E-02       9    9    1       0.1778008074E+01      0.2205511948E+01      0.2100139007E+02      0.1271506838E-02
          0                 3           3            12   20     1      -0.2023911543E-03      12   20    1      -0.5317802239E+00      0.5430239316E+00      0.2205511948E+01     -0.2023911543E-03
          0                 4           2            12   20     1      -0.1138643513E-04      12   20    1      -0.2677758498E-01      0.3367555068E-01      0.5430239316E+00     -0.1138643513E-04

    ------------------------------------------------
       NWT REQUIRED            4 OUTER ITERATIONS 
       AND A TOTAL OF         14 INNER ITERATIONS.
    ------------------------------------------------
                                                   Max.-Head-Change                        Max.-Flux-Residual
  Residual-Control   Outer-Iter.   Inner-Iter.     Column Row Layer    Max.-Head-Change    Column Row Layer    Max.-Flux-Residual            L2-New               L2-Old           Solver-Max-Delh
          0                 1           5             9    9     1      -0.7943179549E-02       9    9    1      -0.9710445102E+01      0.1161777491E+02      0.3367555068E-01     -0.7943179549E-02
          0                 2           4             9    9     1       0.6856907649E-03       9    9    1       0.9702544597E+00      0.1231676269E+01      0.1161777491E+02      0.6856907649E-03
          0                 3           3            12   20     1      -0.1315885286E-03      12   20    1      -0.3501264371E+00      0.3567035238E+00      0.1231676269E+01     -0.1315885286E-03
          0                 4           2            12   20     1      -0.7237613718E-05      12   20    1      -0.1741870464E-01      0.2818739025E-01      0.3567035238E+00     -0.7237613718E-05

    ------------------------------------------------
       NWT REQUIRED            4 OUTER ITERATIONS 
       AND A TOTAL OF         14 INNER ITERATIONS.
    ------------------------------------------------
                                                   Max.-Head-Change                        Max.-Flux-Residual
  Residual-Control   Outer-Iter.   Inner-Iter.     Column Row Layer    Max.-Head-Change    Column Row Layer    Max.-Flux-Residual            L2-New               L2-Old           Solver-Max-Delh
          0                 1           4             9    9     1      -0.2264443999E-02       9    9    1      -0.3022547916E+01      0.4962057634E+01      0.2818739025E-01     -0.2264443999E-02
          0                 2           3             9    9     1       0.1958568369E-03       9    9    1       0.3025061780E+00      0.5467053658E+00      0.4962057634E+01      0.1958568369E-03
          0                 3           3            12   20     1      -0.8017642142E-04      12   20    1      -0.2099716267E+00      0.2135100670E+00      0.5467053658E+00     -0.8017642142E-04

    ------------------------------------------------
       NWT REQUIRED            3 OUTER ITERATIONS 
       AND A TOTAL OF         10 INNER ITERATIONS.
    ------------------------------------------------
                                                   Max.-Head-Change                        Max.-Flux-Residual
  Residual-Control   Outer-Iter.   Inner-Iter.     Column Row Layer    Max.-Head-Change    Column Row Layer    Max.-Flux-Residual            L2-New               L2-Old           Solver-Max-Delh
          0                 1           4             9    9     3       0.1064170264E-02       9   10    1       0.1202383350E+01      0.2398557197E+01      0.2135100670E+00      0.1064170264E-02
          0                 2           3             9    9     3      -0.9153818351E-04       9   10    1      -0.1200978000E+00      0.2692762857E+00      0.2398557197E+01     -0.9153818351E-04

    ------------------------------------------------
       NWT REQUIRED            2 OUTER ITERATIONS 
       AND A TOTAL OF          7 INNER ITERATIONS.
    ------------------------------------------------
                                                   Max.-Head-Change                        Max.-Flux-Residual
  Residual-Control   Outer-Iter.   Inner-Iter.     Column Row Layer    Max.-Head-Change    Column Row Layer    Max.-Flux-Residual            L2-New               L2-Old           Solver-Max-Delh
          0                 1           4             9    9     2       0.1057225123E-02       9   10    1       0.8428331914E+00      0.1587717873E+01      0.2692762857E+00      0.1057225123E-02
          0                 2           3             9    9     2      -0.9162314930E-04       9   10    1      -0.8389180282E-01      0.1728920299E+00      0.1587717873E+01     -0.9162314930E-04

    ------------------------------------------------
       NWT REQUIRED            2 OUTER ITERATIONS 
       AND A TOTAL OF          7 INNER ITERATIONS.
    ------------------------------------------------

 OUTPUT CONTROL FOR STRESS PERIOD      7   TIME STEP     1
    SAVE BUDGET
 UBDSV1 SAVING "         STORAGE" ON UNIT  70 AT TIME STEP    1, STRESS PERIOD   7
 UBDSV2 SAVING "   CONSTANT HEAD" ON UNIT  70 AT TIME STEP    1, STRESS PERIOD   7
 UBDSV1 SAVING "FLOW RIGHT FACE " ON UNIT  70 AT TIME STEP    1, STRESS PERIOD   7
 UBDSV1 SAVING "FLOW FRONT FACE " ON UNIT  70 AT TIME STEP    1, STRESS PERIOD   7
 UBDSV1 SAVING "FLOW LOWER FACE " ON UNIT  70 AT TIME STEP    1, STRESS PERIOD   7
 UBDSV4 SAVING " HEAD DEP BOUNDS" ON UNIT  70 AT TIME STEP    1, STRESS PERIOD   7
 UBDSV4 SAVING "  STREAM LEAKAGE" ON UNIT  70 AT TIME STEP    1, STRESS PERIOD   7



 UBDSV4 SAVING "             MNW" ON UNIT  70 AT TIME STEP    1, STRESS PERIOD   7
 
 
 
 
 
 
 
 
 UBDSV3 SAVING "FARM  NET  RECH." ON UNIT  70 AT TIME STEP    1, STRESS PERIOD   7
 UBDSV4 SAVING " GHOST-NODE FLUX" ON UNIT  70 AT TIME STEP    1, STRESS PERIOD   7
 UBDSV4 SAVING " GHOST-NODE FLUX" ON UNIT  70 AT TIME STEP    1, STRESS PERIOD   7
 UBDSV4 SAVING " GHOST-NODE FLUX" ON UNIT  70 AT TIME STEP    1, STRESS PERIOD   7
 
 SOLVING FOR HEAD 
                                                   Max.-Head-Change                        Max.-Flux-Residual
  Residual-Control   Outer-Iter.   Inner-Iter.     Column Row Layer    Max.-Head-Change    Column Row Layer    Max.-Flux-Residual            L2-New               L2-Old           Solver-Max-Delh
          0                 1           8            20    3     4       0.1059726323E+01      17   15    1       0.1053315947E+04      0.2163739734E+04      0.1728920299E+00      0.1059726323E+01
          0                 2           7            12   12     1       0.1725909593E+00      12   12    1       0.6063741196E+03      0.9320955366E+03      0.2163739734E+04      0.1725909593E+00
          0                 3           5            19    3     4      -0.1479193621E-01      12   12    1      -0.4108305050E+02      0.5804207683E+02      0.9320955366E+03     -0.1479193621E-01
          0                 4           5            19    3     3      -0.3034894836E-02      15   16    1      -0.7803784170E+01      0.1457128836E+02      0.5804207683E+02     -0.3034894836E-02
          0                 5           4            19    3     3      -0.7176571628E-03      15   16    1      -0.2394642159E+01      0.3446104479E+01      0.1457128836E+02     -0.7176571628E-03
          0                 6           3            19    3     3      -0.1722387815E-03      15   16    1      -0.6223886159E+00      0.7734414856E+00      0.3446104479E+01     -0.1722387815E-03
          0                 7           2            19    3     3      -0.4064868868E-04      15   16    1      -0.1422134526E+00      0.1735751476E+00      0.7734414856E+00     -0.4064868868E-04

    ------------------------------------------------
       NWT REQUIRED            7 OUTER ITERATIONS 
       AND A TOTAL OF         34 INNER ITERATIONS.
    ------------------------------------------------
                                                   Max.-Head-Change                        Max.-Flux-Residual
  Residual-Control   Outer-Iter.   Inner-Iter.     Column Row Layer    Max.-Head-Change    Column Row Layer    Max.-Flux-Residual            L2-New               L2-Old           Solver-Max-Delh
          0                 1           8             9    9     1      -0.5534550605E+00      17   15    1      -0.1103028412E+04      0.1796985981E+04      0.1735751476E+00     -0.5534550605E+00
          0                 2           7            12   11     1      -0.4352041320E+00      12   11    1      -0.8499257267E+03      0.8989193803E+03      0.1796985981E+04     -0.4352041320E+00
          0                 3           6            12   11     1       0.3578583438E-01      12   11    1       0.8191272075E+02      0.9187898594E+02      0.8989193803E+03      0.3578583438E-01
          0                 4           4            12   11     1       0.1780713791E-02      12   11    1       0.4074889958E+01      0.4465808144E+01      0.9187898594E+02      0.1780713791E-02
          0                 5           3            12   11     1       0.8880505405E-04      12   11    1       0.2039053297E+00      0.2967259103E+00      0.4465808144E+01      0.8880505405E-04

    ------------------------------------------------
       NWT REQUIRED            5 OUTER ITERATIONS 
       AND A TOTAL OF         28 INNER ITERATIONS.
    ------------------------------------------------
                                                   Max.-Head-Change                        Max.-Flux-Residual
  Residual-Control   Outer-Iter.   Inner-Iter.     Column Row Layer    Max.-Head-Change    Column Row Layer    Max.-Flux-Residual            L2-New               L2-Old           Solver-Max-Delh
          0                 1           7             9    9     1       0.1919672464E+00       9    9    1       0.1996155075E+03      0.3313861958E+03      0.2967259103E+00      0.1919672464E+00
          0                 2           5             9    9     1      -0.1663967557E-01       9    9    1      -0.2008701703E+02      0.3342473218E+02      0.3313861958E+03     -0.1663967557E-01
          0                 3           4             9    9     1      -0.8333428744E-03       9    9    1      -0.1005205892E+01      0.1707512214E+01      0.3342473218E+02     -0.8333428744E-03
          0                 4           3            12   20     1      -0.6027057188E-04      12   20    1      -0.1895993734E+00      0.2311702851E+00      0.1707512214E+01     -0.6027057188E-04

    ------------------------------------------------
       NWT REQUIRED            4 OUTER ITERATIONS 
       AND A TOTAL OF         19 INNER ITERATIONS.
    ------------------------------------------------
                                                   Max.-Head-Change                        Max.-Flux-Residual
  Residual-Control   Outer-Iter.   Inner-Iter.     Column Row Layer    Max.-Head-Change    Column Row Layer    Max.-Flux-Residual            L2-New               L2-Old           Solver-Max-Delh
          0                 1           6             9    9     1       0.1090392005E+00       9    9    1       0.1043749025E+03      0.1691809552E+03      0.2311702851E+00      0.1090392005E+00
          0                 2           5             9    9     1      -0.9438948435E-02       9    9    1      -0.1048317175E+02      0.1696634952E+02      0.1691809552E+03     -0.9438948435E-02
          0                 3           4             9    9     1      -0.4725417264E-03       9    9    1      -0.5243622419E+00      0.8643460536E+00      0.1696634952E+02     -0.4725417264E-03
          0                 4           2             9    9     1      -0.2364468781E-04      12   20    1      -0.5703414592E-01      0.8924347395E-01      0.8643460536E+00     -0.2364468781E-04

    ------------------------------------------------
       NWT REQUIRED            4 OUTER ITERATIONS 
       AND A TOTAL OF         17 INNER ITERATIONS.
    ------------------------------------------------
                                                   Max.-Head-Change                        Max.-Flux-Residual
  Residual-Control   Outer-Iter.   Inner-Iter.     Column Row Layer    Max.-Head-Change    Column Row Layer    Max.-Flux-Residual            L2-New               L2-Old           Solver-Max-Delh
          0                 1           6             8    9     1       0.3286819113E-01       7    9    1       0.3180002060E+02      0.6450404035E+02      0.8924347395E-01      0.3286819113E-01
          0                 2           5             8    9     1      -0.2840290359E-02       7    9    1      -0.3184032385E+01      0.6485066857E+01      0.6450404035E+02     -0.2840290359E-02
          0                 3           3             8    9     1      -0.1423626548E-03       7    9    1      -0.1596366580E+00      0.3307322878E+00      0.6485066857E+01     -0.1423626548E-03
          0                 4           2             2    8     3      -0.7659142346E-05       2    8    1      -0.1552645490E-01      0.3108135635E-01      0.3307322878E+00     -0.7659142346E-05

    ------------------------------------------------
       NWT REQUIRED            4 OUTER ITERATIONS 
       AND A TOTAL OF         16 INNER ITERATIONS.
    ------------------------------------------------
                                                   Max.-Head-Change                        Max.-Flux-Residual
  Residual-Control   Outer-Iter.   Inner-Iter.     Column Row Layer    Max.-Head-Change    Column Row Layer    Max.-Flux-Residual            L2-New               L2-Old           Solver-Max-Delh
          0                 1           5             6    8     1       0.9200084970E-02       7    9    1       0.1253538422E+02      0.2484220188E+02      0.3108135635E-01      0.9200084970E-02
          0                 2           4             6    8     1      -0.7939184871E-03       7    9    1      -0.1254320173E+01      0.2574806092E+01      0.2484220188E+02     -0.7939184871E-03
          0                 3           3            12   20     1      -0.8492831353E-04      12   20    1      -0.2509870054E+00      0.2844616703E+00      0.2574806092E+01     -0.8492831353E-04

    ------------------------------------------------
       NWT REQUIRED            3 OUTER ITERATIONS 
       AND A TOTAL OF         12 INNER ITERATIONS.
    ------------------------------------------------
                                                   Max.-Head-Change                        Max.-Flux-Residual
  Residual-Control   Outer-Iter.   Inner-Iter.     Column Row Layer    Max.-Head-Change    Column Row Layer    Max.-Flux-Residual            L2-New               L2-Old           Solver-Max-Delh
          0                 1           5             9    9     2      -0.1121203590E-01       9    9    1      -0.1265811941E+02      0.1620859920E+02      0.2844616703E+00     -0.1121203590E-01
          0                 2           4             9    9     2       0.9682469442E-03       9    9    1       0.1264778420E+01      0.1695839523E+01      0.1620859920E+02      0.9682469442E-03
          0                 3           3            12   20     1      -0.1177724059E-03      12   20    1      -0.3090756311E+00      0.3221344566E+00      0.1695839523E+01     -0.1177724059E-03
          0                 4           2            12   20     1      -0.6550560201E-05      12   20    1      -0.1527819916E-01      0.2422260919E-01      0.3221344566E+00     -0.6550560201E-05

    ------------------------------------------------
       NWT REQUIRED            4 OUTER ITERATIONS 
       AND A TOTAL OF         14 INNER ITERATIONS.
    ------------------------------------------------
                                                   Max.-Head-Change                        Max.-Flux-Residual
  Residual-Control   Outer-Iter.   Inner-Iter.     Column Row Layer    Max.-Head-Change    Column Row Layer    Max.-Flux-Residual            L2-New               L2-Old           Solver-Max-Delh
          0                 1           5             9    9     1      -0.6654296181E-02       9    9    1      -0.7860624926E+01      0.9273757214E+01      0.2422260919E-01     -0.6654296181E-02
          0                 2           4             9    9     1       0.5748000170E-03       9    9    1       0.7858821363E+00      0.9769158086E+00      0.9273757214E+01      0.5748000170E-03
          0                 3           3            12   20     1      -0.8666618745E-04      12   20    1      -0.2282320397E+00      0.2344763861E+00      0.9769158086E+00     -0.8666618745E-04

    ------------------------------------------------
       NWT REQUIRED            3 OUTER ITERATIONS 
       AND A TOTAL OF         12 INNER ITERATIONS.
    ------------------------------------------------
                                                   Max.-Head-Change                        Max.-Flux-Residual
  Residual-Control   Outer-Iter.   Inner-Iter.     Column Row Layer    Max.-Head-Change    Column Row Layer    Max.-Flux-Residual            L2-New               L2-Old           Solver-Max-Delh
          0                 1           4             9    9     1      -0.2269634152E-02       9    9    1      -0.2811021995E+01      0.3850246991E+01      0.2344763861E+00     -0.2269634152E-02
          0                 2           3             9    9     1       0.1959986004E-03       9    9    1       0.2808025109E+00      0.4201007428E+00      0.3850246991E+01      0.1959986004E-03
          0                 3           3            12   20     1      -0.5558808617E-04      12   20    1      -0.1475183670E+00      0.1514262767E+00      0.4201007428E+00     -0.5558808617E-04

    ------------------------------------------------
       NWT REQUIRED            3 OUTER ITERATIONS 
       AND A TOTAL OF         10 INNER ITERATIONS.
    ------------------------------------------------
                                                   Max.-Head-Change                        Max.-Flux-Residual
  Residual-Control   Outer-Iter.   Inner-Iter.     Column Row Layer    Max.-Head-Change    Column Row Layer    Max.-Flux-Residual            L2-New               L2-Old           Solver-Max-Delh
          0                 1           4             9    9     3       0.7851732866E-03       9   10    1       0.8366178583E+00      0.1617377329E+01      0.1514262767E+00      0.7851732866E-03
          0                 2           3             9    9     3      -0.6754703907E-04       9   10    1      -0.8377493714E-01      0.1901733103E+00      0.1617377329E+01     -0.6754703907E-04

    ------------------------------------------------
       NWT REQUIRED            2 OUTER ITERATIONS 
       AND A TOTAL OF          7 INNER ITERATIONS.
    ------------------------------------------------
                                                   Max.-Head-Change                        Max.-Flux-Residual
  Residual-Control   Outer-Iter.   Inner-Iter.     Column Row Layer    Max.-Head-Change    Column Row Layer    Max.-Flux-Residual            L2-New               L2-Old           Solver-Max-Delh
          0                 1           4             9    9     2       0.7871246881E-03       9   10    1       0.6275197528E+00      0.1108605410E+01      0.1901733103E+00      0.7871246881E-03
          0                 2           3             9    9     2      -0.6802075206E-04       9   10    1      -0.6282897259E-01      0.1247155590E+00      0.1108605410E+01     -0.6802075206E-04

    ------------------------------------------------
       NWT REQUIRED            2 OUTER ITERATIONS 
       AND A TOTAL OF          7 INNER ITERATIONS.
    ------------------------------------------------

 OUTPUT CONTROL FOR STRESS PERIOD      7   TIME STEP     2
    SAVE BUDGET
 UBDSV1 SAVING "         STORAGE" ON UNIT  70 AT TIME STEP    2, STRESS PERIOD   7
 UBDSV2 SAVING "   CONSTANT HEAD" ON UNIT  70 AT TIME STEP    2, STRESS PERIOD   7
 UBDSV1 SAVING "FLOW RIGHT FACE " ON UNIT  70 AT TIME STEP    2, STRESS PERIOD   7
 UBDSV1 SAVING "FLOW FRONT FACE " ON UNIT  70 AT TIME STEP    2, STRESS PERIOD   7
 UBDSV1 SAVING "FLOW LOWER FACE " ON UNIT  70 AT TIME STEP    2, STRESS PERIOD   7
 UBDSV4 SAVING " HEAD DEP BOUNDS" ON UNIT  70 AT TIME STEP    2, STRESS PERIOD   7
 UBDSV4 SAVING "  STREAM LEAKAGE" ON UNIT  70 AT TIME STEP    2, STRESS PERIOD   7



 UBDSV4 SAVING "             MNW" ON UNIT  70 AT TIME STEP    2, STRESS PERIOD   7
 
 
 
 
 
 
 
 
 UBDSV3 SAVING "FARM  NET  RECH." ON UNIT  70 AT TIME STEP    2, STRESS PERIOD   7
 UBDSV4 SAVING " GHOST-NODE FLUX" ON UNIT  70 AT TIME STEP    2, STRESS PERIOD   7
 UBDSV4 SAVING " GHOST-NODE FLUX" ON UNIT  70 AT TIME STEP    2, STRESS PERIOD   7
 UBDSV4 SAVING " GHOST-NODE FLUX" ON UNIT  70 AT TIME STEP    2, STRESS PERIOD   7
1
  VOLUMETRIC BUDGET FOR ENTIRE MODEL AT END OF TIME STEP    2 IN STRESS PERIOD      7
  ------------------------------------------------------------------------------

     CUMULATIVE VOLUMES      L**3       RATES FOR THIS TIME STEP      L**3/T
     ------------------                 ------------------------

           IN:                                      IN:
           ---                                      ---
             STORAGE =    11351020.0000               STORAGE =       13953.7217
       CONSTANT HEAD =           0.0000         CONSTANT HEAD =           0.0000
     HEAD DEP BOUNDS =     1377671.7500       HEAD DEP BOUNDS =        8463.9287
      STREAM LEAKAGE =     4080242.5000        STREAM LEAKAGE =       15342.9619
                 MNW =       18020.9668                   MNW =          13.5352
          FARM WELLS =           0.0000            FARM WELLS =           0.0000
    FARM  NET  RECH. =     4504967.5000      FARM  NET  RECH. =       14859.7812
     GHOST-NODE FLUX =      943188.3750       GHOST-NODE FLUX =        6640.1719

            TOTAL IN =    22275110.0000              TOTAL IN =       59274.1016

          OUT:                                     OUT:
          ----                                     ----
             STORAGE =     3191916.5000               STORAGE =        3905.1689
       CONSTANT HEAD =           0.0000         CONSTANT HEAD =           0.0000
     HEAD DEP BOUNDS =     3736795.7500       HEAD DEP BOUNDS =       16146.4365
      STREAM LEAKAGE =      298666.7500        STREAM LEAKAGE =           4.7758
                 MNW =     2032184.6250                   MNW =        9198.1514
          FARM WELLS =     2354789.5000            FARM WELLS =       16000.0000
    FARM  NET  RECH. =      961666.8125      FARM  NET  RECH. =        4484.3311
     GHOST-NODE FLUX =     9699097.0000       GHOST-NODE FLUX =        9535.2100

           TOTAL OUT =    22275118.0000             TOTAL OUT =       59274.0742

            IN - OUT =          -8.0000              IN - OUT =       2.7344E-02

 PERCENT DISCREPANCY =          -0.00     PERCENT DISCREPANCY =           0.00






          TIME SUMMARY AT END OF TIME STEP     2 IN STRESS PERIOD      7
                    SECONDS     MINUTES      HOURS       DAYS        YEARS
                    -----------------------------------------------------------
   TIME STEP LENGTH 1.31414E+06  21902.      365.04      15.210     4.16427E-02
 STRESS PERIOD TIME 2.62829E+06  43805.      730.08      30.420     8.32854E-02
         TOTAL TIME 1.83980E+07 3.06634E+05  5110.6      212.94     0.58300    
1
1
                            STRESS PERIOD NO.      8, LENGTH =   30.42000    
                            -----------------------------------------------

                              NUMBER OF TIME STEPS =     2

                               MULTIPLIER FOR DELT =     1.000

                            INITIAL TIME STEP SIZE =   15.21000    

 REUSING NON-PARAMETER GHB CELLS FROM LAST STRESS PERIOD

     92 GHB CELLS

 REUSING STREAM SEGMENT DATA FROM LAST STRESS PERIOD

 REUSING MNW7  FROM LAST STRESS PERIOD

 Parameter:  WELLS1
 WELL NO. LAYER    ROW    COL  F-WELL ID    FARM ID         QMAX         QMAXRESET       
 ----------------------------------------------------------------------------------------
       1      1      5      6          1          1      5.0000E+03              0
       2      1      8      7          2          1      5.0000E+03              0
       3      1      8      9          3          1      5.0000E+03              0
       4      1      5      9          4          2      3.0000E+03              0
       5      1      6     10          5          2      2.0000E+03              0
       6      1      7     11          6          2      1.0000E+03              0
       7      1     18      3          7          3      2.0000E+03              0
       8      1     21      3          8          3      4.0000E+03              0
       9      1     18     19          9          4      3.0000E+03              0
      10      1     21     19         10          4      5.0000E+03              0
      11      0      6      2        -11          5      5.0000E+03              1
      12      0      8      2        -12          5      5.0000E+03              1
      13      0     10      2        -13          5      5.0000E+03              1
      14      0      3     19        -14          6      1.0000E+04              1
      15      0      6     17        -15          6      6.0000E+03              1

 NUMBER OF ACTIVE FARM WELLS:       15

 THE SINGLE LAYER FMP- OR MNW- WELL IN ROW      8 AND COLUMN      7 IS LOCATED IN AN INACTIVE CELL (IBOUND=0) AND HAS BEEN EXCLUDED FROM THE TOTAL MAXIMUM CAPACITY PER FARM

 THE SINGLE LAYER FMP- OR MNW- WELL IN ROW      8 AND COLUMN      9 IS LOCATED IN AN INACTIVE CELL (IBOUND=0) AND HAS BEEN EXCLUDED FROM THE TOTAL MAXIMUM CAPACITY PER FARM

 THE SINGLE LAYER FMP- OR MNW- WELL IN ROW      6 AND COLUMN     10 IS LOCATED IN AN INACTIVE CELL (IBOUND=0) AND HAS BEEN EXCLUDED FROM THE TOTAL MAXIMUM CAPACITY PER FARM

 THE SINGLE LAYER FMP- OR MNW- WELL IN ROW      7 AND COLUMN     11 IS LOCATED IN AN INACTIVE CELL (IBOUND=0) AND HAS BEEN EXCLUDED FROM THE TOTAL MAXIMUM CAPACITY PER FARM

 FARM-ID  NUMBER OF WELLS PER FARM  TOTAL MAX.CAPACITY PER FARM
       1                         1                    5000.0000
       2                         1                    3000.0000
       3                         2                    6000.0000
       4                         2                    8000.0000
       5                         3                   15000.0000
       6                         2                   16000.0000
       7                         0                       0.0000
       8                         0                       0.0000

 READING LIST ON UNIT   20 WITH FILE NAME: C:\MF_OWHM_Release_Package\MF_OWHM_v1_0\examples\test-run-owhm-lgr\fmp-lgr-nwt\DATA_FMP\OFE.in
 LIST SCALING FACTOR= 0.90000    
 (THE SCALE FACTOR WAS APPLIED TO FIELDS   2 -   7)

 Reading list on unit   30

 Reading list on unit   40

  REF. EVAPOTRANSPIRATION =  6.170000E-03

 READING LIST ON UNIT   50 WITH FILE NAME: C:\MF_OWHM_Release_Package\MF_OWHM_v1_0\examples\test-run-owhm-lgr\fmp-lgr-nwt\DATA_FMP\FTE.in

Transpiratory and Evaporative Fractions of Crop Consumptive Use
    % Transpiration % Evap. for Precip. % Evap. for Irrig.
    1          0.000          1.000          0.500
    2          0.950          0.050          0.050
    3          0.000          1.000          1.000
    4          0.125          0.875          0.875
    5          0.927          0.073          0.000
    6          0.700          0.300          0.000

 READING LIST ON UNIT   60 WITH FILE NAME: C:\MF_OWHM_Release_Package\MF_OWHM_v1_0\examples\test-run-owhm-lgr\fmp-lgr-nwt\DATA_FMP\INEFFSW.in

FRACTIONS OF IN-EFFICIENT LOSSES TO SW-RUNOFF FROM 
     PRECIPITATION:  IRRIGATION:
    1          0.500          0.600
    2          0.400          0.300
    3          0.600          0.500
    4          0.700          0.600
    5          0.500          0.000
    6          0.300          0.000

       PRECIPITATION FLUX =  3.000000E-05

 OPENING FILE WITH FILENAME: ./DATA_FMP/NRDV.in
 AND UNIT NUMBER: -154
 READING SCALE FACTOR LIST ON UNIT   80 ASSOCIATED WITH FILE: C:\MF_OWHM_Release_Package\MF_OWHM_v1_0\examples\test-run-owhm-lgr\fmp-lgr-nwt\DATA_FMP\NRDV.in
 FIELD     SCALE FACTOR
     1       1.0000    
     2       5.0000    
     3       1.0000    
     4       1.0000    

UNRANKED LIST OF NON-ROUTED DELIVERIES TO FARMS [L3]:
TYPE:             1

FARM-ID  VOLUME:
      1   7.500E+04
      2   7.500E+04
      3   1.000E+05
      4   5.000E+04
      5   5.000E+04
      6   1.000E+05
      7   0.000E+00
      8   0.000E+00

FARM-ID  PRIORITY RANK OF NRD-TYPE:
      1           1
      2           1
      3           1
      4           1
      5           1
      6           1
      7           1
      8           1

FARM-ID  USE-FLAG:
         0 = SUFFICIENT USE
         1 = ABSOLUTE USE (RECHARGE SURPLUS BACK INTO CANAL)
         2 = ABSOLUTE USE (INJECT SURPLUS INTO FARM-WELLS)
      1           0
      2           0
      3           0
      4           0
      5           0
      6           0
      7           0
      8           0

LIST OF NON-ROUTED DELIVERIES IN RANKED SEQUENCE [L3/T]:

FARM-ID  RATE:
      1   2.465E+03
      2   2.465E+03
      3   3.287E+03
      4   1.644E+03
      5   1.644E+03
      6   3.287E+03
      7   0.000E+00
      8   0.000E+00

FARM-ID  USE-FLAG:
         0 = SUFFICIENT USE
         1 = ABSOLUTE USE (RECHARGE SURPLUS BACK INTO CANAL)
         2 = ABSOLUTE USE (INJECT SURPLUS INTO FARM-WELLS)
      1           0
      2           0
      3           0
      4           0
      5           0
      6           0
      7           0
      8           0

SURFACE-WATER FARM ALLOTMENT HEIGHT [L]:   0.200
 
 SOLVING FOR HEAD 
                                                   Max.-Head-Change                        Max.-Flux-Residual
  Residual-Control   Outer-Iter.   Inner-Iter.     Column Row Layer    Max.-Head-Change    Column Row Layer    Max.-Flux-Residual            L2-New               L2-Old           Solver-Max-Delh
          0                 1           9            19   21     1       0.2337369292E+01       6    5    1       0.4961116259E+04      0.9550052527E+04      0.1247155590E+00      0.2337369292E+01
          0                 2           8             6    5     1      -0.2056247469E+01       6    5    1      -0.5537863764E+04      0.7954075408E+04      0.9550052527E+04     -0.2056247469E+01
          1                 2           0             6    5     1      -0.1439373203E+01       9    5    1      -0.7816465393E+04      0.9763714048E+04      0.7954075408E+04     -0.2056247469E+01
          0                 3           8            19   21     1      -0.2224770949E+01      19   21    1      -0.4911648666E+04      0.7297056919E+04      0.9763714048E+04     -0.2224770949E+01
          0                 4           7            14   16     1       0.1378519643E+00      14   16    1       0.4715574282E+03      0.7660146616E+03      0.7297056919E+04      0.1378519643E+00
          0                 5           6            19   21     1       0.1269855732E-01      19   21    1       0.3284862699E+02      0.6688276595E+02      0.7660146616E+03      0.1269855732E-01
          0                 6           5            19   21     1       0.2960779379E-02      19   21    1       0.7685710028E+01      0.1560632007E+02      0.6688276595E+02      0.2960779379E-02
          0                 7           4             2    8     3       0.7244910128E-03      14   16    1      -0.1992230167E+01      0.4069637875E+01      0.1560632007E+02      0.7244910128E-03
          0                 8           4             2    8     3       0.2221608232E-03      14   16    1      -0.7076478529E+00      0.1449522632E+01      0.4069637875E+01      0.2221608232E-03
          0                 9           3             2    8     3       0.6771822303E-04      14   20    1      -0.2537967549E+00      0.5277385110E+00      0.1449522632E+01      0.6771822303E-04

    ------------------------------------------------
       NWT REQUIRED            9 OUTER ITERATIONS 
       AND A TOTAL OF         54 INNER ITERATIONS.
    ------------------------------------------------
                                                   Max.-Head-Change                        Max.-Flux-Residual
  Residual-Control   Outer-Iter.   Inner-Iter.     Column Row Layer    Max.-Head-Change    Column Row Layer    Max.-Flux-Residual            L2-New               L2-Old           Solver-Max-Delh
          0                 1           8             9   10     1      -0.6747240202E+00      17   15    1      -0.9044259339E+03      0.1848787241E+04      0.5277385110E+00     -0.6747240202E+00
          0                 2           7            12   10     1      -0.1899170009E+00      12   10    1      -0.2703105961E+03      0.3761593722E+03      0.1848787241E+04     -0.1899170009E+00
          0                 3           5            12   10     1       0.1620823947E-01      12   10    1       0.2651869997E+02      0.3450260680E+02      0.3761593722E+03      0.1620823947E-01
          0                 4           4            12   10     1       0.8079914025E-03      12   10    1       0.1322104507E+01      0.2006021619E+01      0.3450260680E+02      0.8079914025E-03
          0                 5           3            12   10     1       0.4064999619E-04      13   16    1      -0.1141248462E+00      0.2220627221E+00      0.2006021619E+01      0.4064999619E-04

    ------------------------------------------------
       NWT REQUIRED            5 OUTER ITERATIONS 
       AND A TOTAL OF         27 INNER ITERATIONS.
    ------------------------------------------------
                                                   Max.-Head-Change                        Max.-Flux-Residual
  Residual-Control   Outer-Iter.   Inner-Iter.     Column Row Layer    Max.-Head-Change    Column Row Layer    Max.-Flux-Residual            L2-New               L2-Old           Solver-Max-Delh
          0                 1           7             9    9     1       0.3399921544E+00       9    9    1       0.3223950320E+03      0.4575673742E+03      0.2220627221E+00      0.3399921544E+00
          0                 2           6             9    9     1      -0.2959788441E-01       9    9    1      -0.3273820410E+02      0.4626425533E+02      0.4575673742E+03     -0.2959788441E-01
          0                 3           4             9    9     1      -0.1483364814E-02       9    9    1      -0.1640534293E+01      0.2371242185E+01      0.4626425533E+02     -0.1483364814E-02
          0                 4           3             9    9     1      -0.7444849418E-04       2    8    1      -0.9378033585E-01      0.1916939327E+00      0.2371242185E+01     -0.7444849418E-04

    ------------------------------------------------
       NWT REQUIRED            4 OUTER ITERATIONS 
       AND A TOTAL OF         20 INNER ITERATIONS.
    ------------------------------------------------
                                                   Max.-Head-Change                        Max.-Flux-Residual
  Residual-Control   Outer-Iter.   Inner-Iter.     Column Row Layer    Max.-Head-Change    Column Row Layer    Max.-Flux-Residual            L2-New               L2-Old           Solver-Max-Delh
          0                 1           7             9    9     1       0.1585271480E+00       9    9    1       0.1405730398E+03      0.2164106105E+03      0.1916939327E+00      0.1585271480E+00
          0                 2           5             9    9     1      -0.1374128074E-01       9    9    1      -0.1416178686E+02      0.2182981492E+02      0.2164106105E+03     -0.1374128074E-01
          0                 3           4             9    9     1      -0.6878362836E-03       9    9    1      -0.7086571379E+00      0.1272358398E+01      0.2182981492E+02     -0.6878362836E-03
          0                 4           3             9    9     1      -0.3507351679E-04      12   20    1      -0.9670721088E-01      0.1570988425E+00      0.1272358398E+01     -0.3507351679E-04

    ------------------------------------------------
       NWT REQUIRED            4 OUTER ITERATIONS 
       AND A TOTAL OF         19 INNER ITERATIONS.
    ------------------------------------------------
                                                   Max.-Head-Change                        Max.-Flux-Residual
  Residual-Control   Outer-Iter.   Inner-Iter.     Column Row Layer    Max.-Head-Change    Column Row Layer    Max.-Flux-Residual            L2-New               L2-Old           Solver-Max-Delh
          0                 1           6             7    9     1       0.3906074091E-01       7    9    1       0.4334172534E+02      0.7645845621E+02      0.1570988425E+00      0.3906074091E-01
          0                 2           5             7    9     1      -0.3375145022E-02       7    9    1      -0.4341563307E+01      0.7850371994E+01      0.7645845621E+02     -0.3375145022E-02
          0                 3           3            19   21     1       0.2398050721E-03      19   21    1       0.6417488881E+00      0.8905463925E+00      0.7850371994E+01      0.2398050721E-03
          0                 4           2            12   20     1      -0.2737202451E-04      12   20    1      -0.8880733990E-01      0.1139085725E+00      0.8905463925E+00     -0.2737202451E-04

    ------------------------------------------------
       NWT REQUIRED            4 OUTER ITERATIONS 
       AND A TOTAL OF         16 INNER ITERATIONS.
    ------------------------------------------------
                                                   Max.-Head-Change                        Max.-Flux-Residual
  Residual-Control   Outer-Iter.   Inner-Iter.     Column Row Layer    Max.-Head-Change    Column Row Layer    Max.-Flux-Residual            L2-New               L2-Old           Solver-Max-Delh
          0                 1           6             9    9     2      -0.1798336884E-01       9    9    1      -0.2120116566E+02      0.3756283560E+02      0.1139085725E+00     -0.1798336884E-01
          0                 2           4             9    9     2       0.1553775294E-02       9    9    1       0.2119668090E+01      0.3944517069E+01      0.3756283560E+02      0.1553775294E-02
          0                 3           3            19   21     1       0.1785486331E-03      19   21    1       0.4768534183E+00      0.6682611181E+00      0.3944517069E+01      0.1785486331E-03
          0                 4           2            20   21     1      -0.1190329538E-04      18   21    1      -0.1566956629E-01      0.4364149730E-01      0.6682611181E+00     -0.1190329538E-04

    ------------------------------------------------
       NWT REQUIRED            4 OUTER ITERATIONS 
       AND A TOTAL OF         15 INNER ITERATIONS.
    ------------------------------------------------
                                                   Max.-Head-Change                        Max.-Flux-Residual
  Residual-Control   Outer-Iter.   Inner-Iter.     Column Row Layer    Max.-Head-Change    Column Row Layer    Max.-Flux-Residual            L2-New               L2-Old           Solver-Max-Delh
          0                 1           5             9    9     1      -0.1849279655E-01       9    9    1      -0.2188427662E+02      0.2555545931E+02      0.4364149730E-01     -0.1849279655E-01
          0                 2           4             9    9     1       0.1596924071E-02       9    9    1       0.2186832435E+01      0.2657836674E+01      0.2555545931E+02      0.1596924071E-02
          0                 3           3            19   21     1       0.1182180970E-03      19   21    1       0.3140810828E+00      0.4433904841E+00      0.2657836674E+01      0.1182180970E-03
          0                 4           2            11   19     1       0.9605235976E-05      11   19    1       0.2652593027E-01      0.4162185252E-01      0.4433904841E+00      0.9605235976E-05

    ------------------------------------------------
       NWT REQUIRED            4 OUTER ITERATIONS 
       AND A TOTAL OF         14 INNER ITERATIONS.
    ------------------------------------------------
                                                   Max.-Head-Change                        Max.-Flux-Residual
  Residual-Control   Outer-Iter.   Inner-Iter.     Column Row Layer    Max.-Head-Change    Column Row Layer    Max.-Flux-Residual            L2-New               L2-Old           Solver-Max-Delh
          0                 1           5             9    9     1      -0.9917461545E-02       9    9    1      -0.1138931749E+02      0.1265210998E+02      0.4162185252E-01     -0.9917461545E-02
          0                 2           4             9    9     1       0.8563660648E-03       9    9    1       0.1138232515E+01      0.1331554363E+01      0.1265210998E+02      0.8563660648E-03
          0                 3           3            19   21     1       0.7112709274E-04      19   21    1       0.1891883105E+00      0.2645049141E+00      0.1331554363E+01      0.7112709274E-04

    ------------------------------------------------
       NWT REQUIRED            3 OUTER ITERATIONS 
       AND A TOTAL OF         12 INNER ITERATIONS.
    ------------------------------------------------
                                                   Max.-Head-Change                        Max.-Flux-Residual
  Residual-Control   Outer-Iter.   Inner-Iter.     Column Row Layer    Max.-Head-Change    Column Row Layer    Max.-Flux-Residual            L2-New               L2-Old           Solver-Max-Delh
          0                 1           4             9    9     1      -0.2684692119E-02       9    9    1      -0.3215406711E+01      0.4259228351E+01      0.2645049141E+00     -0.2684692119E-02
          0                 2           3             9    9     1       0.2317737228E-03       9    9    1       0.3213838487E+00      0.4802257810E+00      0.4259228351E+01      0.2317737228E-03
          0                 3           2            19   21     1       0.4335556111E-04      12   20    1      -0.1019888581E+00      0.1473385205E+00      0.4802257810E+00      0.4335556111E-04

    ------------------------------------------------
       NWT REQUIRED            3 OUTER ITERATIONS 
       AND A TOTAL OF          9 INNER ITERATIONS.
    ------------------------------------------------
                                                   Max.-Head-Change                        Max.-Flux-Residual
  Residual-Control   Outer-Iter.   Inner-Iter.     Column Row Layer    Max.-Head-Change    Column Row Layer    Max.-Flux-Residual            L2-New               L2-Old           Solver-Max-Delh
          0                 1           4             9    9     2       0.1222705385E-02       9   10    1       0.1099058136E+01      0.2036976009E+01      0.1473385205E+00      0.1222705385E-02
          0                 2           3             9    9     2      -0.1056475399E-03       9   10    1      -0.1098784314E+00      0.2356140607E+00      0.2036976009E+01     -0.1056475399E-03
          0                 3           2            19   21     1       0.2066314243E-04      19   21    1       0.5246496387E-01      0.7835265947E-01      0.2356140607E+00      0.2066314243E-04

    ------------------------------------------------
       NWT REQUIRED            3 OUTER ITERATIONS 
       AND A TOTAL OF          9 INNER ITERATIONS.
    ------------------------------------------------
                                                   Max.-Head-Change                        Max.-Flux-Residual
  Residual-Control   Outer-Iter.   Inner-Iter.     Column Row Layer    Max.-Head-Change    Column Row Layer    Max.-Flux-Residual            L2-New               L2-Old           Solver-Max-Delh
          0                 1           4             9    9     2       0.1270767796E-02       9    9    1       0.1008982307E+01      0.1669344548E+01      0.7835265947E-01      0.1270767796E-02
          0                 2           3             9    9     2      -0.1099905553E-03       9    9    1      -0.1009647560E+00      0.1772337117E+00      0.1669344548E+01     -0.1099905553E-03
          0                 3           2            19   21     1       0.1045806342E-04      12   20    1      -0.2666401031E-01      0.4243259813E-01      0.1772337117E+00      0.1045806342E-04

    ------------------------------------------------
       NWT REQUIRED            3 OUTER ITERATIONS 
       AND A TOTAL OF          9 INNER ITERATIONS.
    ------------------------------------------------

 OUTPUT CONTROL FOR STRESS PERIOD      8   TIME STEP     1
    SAVE BUDGET
 UBDSV1 SAVING "         STORAGE" ON UNIT  70 AT TIME STEP    1, STRESS PERIOD   8
 UBDSV2 SAVING "   CONSTANT HEAD" ON UNIT  70 AT TIME STEP    1, STRESS PERIOD   8
 UBDSV1 SAVING "FLOW RIGHT FACE " ON UNIT  70 AT TIME STEP    1, STRESS PERIOD   8
 UBDSV1 SAVING "FLOW FRONT FACE " ON UNIT  70 AT TIME STEP    1, STRESS PERIOD   8
 UBDSV1 SAVING "FLOW LOWER FACE " ON UNIT  70 AT TIME STEP    1, STRESS PERIOD   8
 UBDSV4 SAVING " HEAD DEP BOUNDS" ON UNIT  70 AT TIME STEP    1, STRESS PERIOD   8
 UBDSV4 SAVING "  STREAM LEAKAGE" ON UNIT  70 AT TIME STEP    1, STRESS PERIOD   8



 UBDSV4 SAVING "             MNW" ON UNIT  70 AT TIME STEP    1, STRESS PERIOD   8
 
 
 
 
 
 
 
 
 UBDSV3 SAVING "FARM  NET  RECH." ON UNIT  70 AT TIME STEP    1, STRESS PERIOD   8
 UBDSV4 SAVING " GHOST-NODE FLUX" ON UNIT  70 AT TIME STEP    1, STRESS PERIOD   8
 UBDSV4 SAVING " GHOST-NODE FLUX" ON UNIT  70 AT TIME STEP    1, STRESS PERIOD   8
 UBDSV4 SAVING " GHOST-NODE FLUX" ON UNIT  70 AT TIME STEP    1, STRESS PERIOD   8
 
 SOLVING FOR HEAD 
                                                   Max.-Head-Change                        Max.-Flux-Residual
  Residual-Control   Outer-Iter.   Inner-Iter.     Column Row Layer    Max.-Head-Change    Column Row Layer    Max.-Flux-Residual            L2-New               L2-Old           Solver-Max-Delh
          0                 1           8            12   10     1       0.6036005802E+00      12   10    1       0.9669140056E+03      0.1944625771E+04      0.4243259813E-01      0.6036005802E+00
          0                 2           7            12   11     1       0.1648661093E+00      12   11    1       0.4529825665E+03      0.7547561499E+03      0.1944625771E+04      0.1648661093E+00
          0                 3           6            14   16     1      -0.4709610451E-01      14   16    1      -0.1539644588E+03      0.1662736797E+03      0.7547561499E+03     -0.4709610451E-01
          0                 4           5            12   11     1      -0.1129708630E-01      12   11    1      -0.2941899185E+02      0.3850925809E+02      0.1662736797E+03     -0.1129708630E-01
          0                 5           4            14   16     1      -0.1619439864E-02      12   11    1      -0.4218289763E+01      0.6393821063E+01      0.3850925809E+02     -0.1619439864E-02
          0                 6           3            14   16     1      -0.3098345239E-03      14   16    1      -0.6755369797E+00      0.1191762355E+01      0.6393821063E+01     -0.3098345239E-03
          0                 7           3            14   16     1      -0.5784949626E-04      15   16    1      -0.1341245677E+00      0.2457336369E+00      0.1191762355E+01     -0.5784949626E-04

    ------------------------------------------------
       NWT REQUIRED            7 OUTER ITERATIONS 
       AND A TOTAL OF         36 INNER ITERATIONS.
    ------------------------------------------------
                                                   Max.-Head-Change                        Max.-Flux-Residual
  Residual-Control   Outer-Iter.   Inner-Iter.     Column Row Layer    Max.-Head-Change    Column Row Layer    Max.-Flux-Residual            L2-New               L2-Old           Solver-Max-Delh
          0                 1           8             9    9     1      -0.7935328276E+00      17   15    1      -0.9130962527E+03      0.1889069937E+04      0.2457336369E+00     -0.7935328276E+00
          0                 2           7            12   10     1      -0.1979255815E+00      12   10    1      -0.2900131861E+03      0.3835348922E+03      0.1889069937E+04     -0.1979255815E+00
          0                 3           5            12   10     1       0.1689549624E-01      12   10    1       0.2843494086E+02      0.3725359914E+02      0.3835348922E+03      0.1689549624E-01
          0                 4           4            12   10     1       0.8414308158E-03      12   10    1       0.1417416220E+01      0.1919475299E+01      0.3725359914E+02      0.8414308158E-03
          0                 5           3            12   10     1       0.4220777030E-04      19   21    1      -0.7844050508E-01      0.1691721307E+00      0.1919475299E+01      0.4220777030E-04

    ------------------------------------------------
       NWT REQUIRED            5 OUTER ITERATIONS 
       AND A TOTAL OF         27 INNER ITERATIONS.
    ------------------------------------------------
                                                   Max.-Head-Change                        Max.-Flux-Residual
  Residual-Control   Outer-Iter.   Inner-Iter.     Column Row Layer    Max.-Head-Change    Column Row Layer    Max.-Flux-Residual            L2-New               L2-Old           Solver-Max-Delh
          0                 1           7             9    9     1       0.2929254777E+00       9    9    1       0.2856156863E+03      0.4043126092E+03      0.1691721307E+00      0.2929254777E+00
          0                 2           6             9    9     1      -0.2546846370E-01       9    9    1      -0.2892554002E+02      0.4082270133E+02      0.4043126092E+03     -0.2546846370E-01
          0                 3           4             9    9     1      -0.1275550354E-02       9    9    1      -0.1448773357E+01      0.2142596822E+01      0.4082270133E+02     -0.1275550354E-02
          0                 4           3             9    9     1      -0.6404949551E-04       2    8    1      -0.8391187573E-01      0.1651577772E+00      0.2142596822E+01     -0.6404949551E-04

    ------------------------------------------------
       NWT REQUIRED            4 OUTER ITERATIONS 
       AND A TOTAL OF         20 INNER ITERATIONS.
    ------------------------------------------------
                                                   Max.-Head-Change                        Max.-Flux-Residual
  Residual-Control   Outer-Iter.   Inner-Iter.     Column Row Layer    Max.-Head-Change    Column Row Layer    Max.-Flux-Residual            L2-New               L2-Old           Solver-Max-Delh
          0                 1           7             9    9     1       0.1529097438E+00       9    9    1       0.1410406839E+03      0.2043572022E+03      0.1651577772E+00      0.1529097438E+00
          0                 2           5             9    9     1      -0.1325257835E-01       9    9    1      -0.1420445721E+02      0.2057249888E+02      0.2043572022E+03     -0.1325257835E-01
          0                 3           4             9    9     1      -0.6638007293E-03       9    9    1      -0.7109664938E+00      0.1169009816E+01      0.2057249888E+02     -0.6638007293E-03
          0                 4           3            19   21     1      -0.3602804491E-04      19   21    1      -0.8141514042E-01      0.1360342544E+00      0.1169009816E+01     -0.3602804491E-04

    ------------------------------------------------
       NWT REQUIRED            4 OUTER ITERATIONS 
       AND A TOTAL OF         19 INNER ITERATIONS.
    ------------------------------------------------
                                                   Max.-Head-Change                        Max.-Flux-Residual
  Residual-Control   Outer-Iter.   Inner-Iter.     Column Row Layer    Max.-Head-Change    Column Row Layer    Max.-Flux-Residual            L2-New               L2-Old           Solver-Max-Delh
          0                 1           6             9    9     1       0.4078564835E-01       7    9    1       0.3880775647E+02      0.7453460862E+02      0.1360342544E+00      0.4078564835E-01
          0                 2           5             9    9     1      -0.3524318654E-02       7    9    1      -0.3886633115E+01      0.7612495394E+01      0.7453460862E+02     -0.3524318654E-02
          0                 3           3            19   21     1       0.1970446282E-03      12   20    1      -0.4471175479E+00      0.7038762551E+00      0.7612495394E+01      0.1970446282E-03
          0                 4           2            19   21     1      -0.4226110952E-04      19   21    1      -0.9489271982E-01      0.1309862765E+00      0.7038762551E+00     -0.4226110952E-04

    ------------------------------------------------
       NWT REQUIRED            4 OUTER ITERATIONS 
       AND A TOTAL OF         16 INNER ITERATIONS.
    ------------------------------------------------
                                                   Max.-Head-Change                        Max.-Flux-Residual
  Residual-Control   Outer-Iter.   Inner-Iter.     Column Row Layer    Max.-Head-Change    Column Row Layer    Max.-Flux-Residual            L2-New               L2-Old           Solver-Max-Delh
          0                 1           5             9    9     2      -0.1153695777E-01       6    8    1       0.1458672611E+02      0.3143444374E+02      0.1309862765E+00     -0.1153695777E-01
          0                 2           4             9    9     2       0.9971078795E-03       6    8    1      -0.1459591306E+01      0.3329366901E+01      0.3143444374E+02      0.9971078795E-03
          0                 3           3            19   21     1       0.1067788772E-03      12   20    1      -0.2865757634E+00      0.3906686489E+00      0.3329366901E+01      0.1067788772E-03
          0                 4           2            19   21     1      -0.2487113012E-04      19   21    1      -0.5603905173E-01      0.7818491530E-01      0.3906686489E+00     -0.2487113012E-04

    ------------------------------------------------
       NWT REQUIRED            4 OUTER ITERATIONS 
       AND A TOTAL OF         14 INNER ITERATIONS.
    ------------------------------------------------
                                                   Max.-Head-Change                        Max.-Flux-Residual
  Residual-Control   Outer-Iter.   Inner-Iter.     Column Row Layer    Max.-Head-Change    Column Row Layer    Max.-Flux-Residual            L2-New               L2-Old           Solver-Max-Delh
          0                 1           5             9    9     2      -0.1563956856E-01       9    9    1      -0.1813856719E+02      0.2192889978E+02      0.7818491530E-01     -0.1563956856E-01
          0                 2           4             9    9     2       0.1351108324E-02       9    9    1       0.1812592464E+01      0.2295232951E+01      0.2192889978E+02      0.1351108324E-02
          0                 3           3             9    9     2       0.6774837246E-04      12   20    1      -0.1601792400E+00      0.2084601137E+00      0.2295232951E+01      0.6774837246E-04

    ------------------------------------------------
       NWT REQUIRED            3 OUTER ITERATIONS 
       AND A TOTAL OF         12 INNER ITERATIONS.
    ------------------------------------------------
                                                   Max.-Head-Change                        Max.-Flux-Residual
  Residual-Control   Outer-Iter.   Inner-Iter.     Column Row Layer    Max.-Head-Change    Column Row Layer    Max.-Flux-Residual            L2-New               L2-Old           Solver-Max-Delh
          0                 1           5             9    9     1      -0.9266296118E-02       9    9    1      -0.1061508419E+02      0.1184184385E+02      0.2084601137E+00     -0.9266296118E-02
          0                 2           4             9    9     1       0.7999405606E-03       9    9    1       0.1060907837E+01      0.1246612462E+01      0.1184184385E+02      0.7999405606E-03
          0                 3           2             9    9     1       0.3988472037E-04      19   21    1       0.6305076112E-01      0.1100169298E+00      0.1246612462E+01      0.3988472037E-04

    ------------------------------------------------
       NWT REQUIRED            3 OUTER ITERATIONS 
       AND A TOTAL OF         11 INNER ITERATIONS.
    ------------------------------------------------
                                                   Max.-Head-Change                        Max.-Flux-Residual
  Residual-Control   Outer-Iter.   Inner-Iter.     Column Row Layer    Max.-Head-Change    Column Row Layer    Max.-Flux-Residual            L2-New               L2-Old           Solver-Max-Delh
          0                 1           4             9    9     1      -0.2983656967E-02       9    9    1      -0.3528906307E+01      0.4346229613E+01      0.1100169298E+00     -0.2983656967E-02
          0                 2           3             9    9     1       0.2575033436E-03       9    9    1       0.3524574325E+00      0.4824527405E+00      0.4346229613E+01      0.2575033436E-03
          0                 3           2             9    9     1       0.1286659315E-04       9    9    1       0.1781599858E-01      0.3505462980E-01      0.4824527405E+00      0.1286659315E-04

    ------------------------------------------------
       NWT REQUIRED            3 OUTER ITERATIONS 
       AND A TOTAL OF          9 INNER ITERATIONS.
    ------------------------------------------------
                                                   Max.-Head-Change                        Max.-Flux-Residual
  Residual-Control   Outer-Iter.   Inner-Iter.     Column Row Layer    Max.-Head-Change    Column Row Layer    Max.-Flux-Residual            L2-New               L2-Old           Solver-Max-Delh
          0                 1           4             9    9     3       0.1007505229E-02       9   10    1       0.9479131555E+00      0.1740359973E+01      0.3505462980E-01      0.1007505229E-02
          0                 2           3             9    9     3      -0.8709038595E-04      19   21    1       0.1062392661E+00      0.2059166211E+00      0.1740359973E+01     -0.8709038595E-04

    ------------------------------------------------
       NWT REQUIRED            2 OUTER ITERATIONS 
       AND A TOTAL OF          7 INNER ITERATIONS.
    ------------------------------------------------
                                                   Max.-Head-Change                        Max.-Flux-Residual
  Residual-Control   Outer-Iter.   Inner-Iter.     Column Row Layer    Max.-Head-Change    Column Row Layer    Max.-Flux-Residual            L2-New               L2-Old           Solver-Max-Delh
          0                 1           4             9    9     2       0.1067809383E-02       9    9    1       0.7844923211E+00      0.1408336811E+01      0.2059166211E+00      0.1067809383E-02
          0                 2           3             9    9     2      -0.9234004002E-04       9    9    1      -0.7861183447E-01      0.1486596778E+00      0.1408336811E+01     -0.9234004002E-04

    ------------------------------------------------
       NWT REQUIRED            2 OUTER ITERATIONS 
       AND A TOTAL OF          7 INNER ITERATIONS.
    ------------------------------------------------

 OUTPUT CONTROL FOR STRESS PERIOD      8   TIME STEP     2
    SAVE BUDGET
 UBDSV1 SAVING "         STORAGE" ON UNIT  70 AT TIME STEP    2, STRESS PERIOD   8
 UBDSV2 SAVING "   CONSTANT HEAD" ON UNIT  70 AT TIME STEP    2, STRESS PERIOD   8
 UBDSV1 SAVING "FLOW RIGHT FACE " ON UNIT  70 AT TIME STEP    2, STRESS PERIOD   8
 UBDSV1 SAVING "FLOW FRONT FACE " ON UNIT  70 AT TIME STEP    2, STRESS PERIOD   8
 UBDSV1 SAVING "FLOW LOWER FACE " ON UNIT  70 AT TIME STEP    2, STRESS PERIOD   8
 UBDSV4 SAVING " HEAD DEP BOUNDS" ON UNIT  70 AT TIME STEP    2, STRESS PERIOD   8
 UBDSV4 SAVING "  STREAM LEAKAGE" ON UNIT  70 AT TIME STEP    2, STRESS PERIOD   8



 UBDSV4 SAVING "             MNW" ON UNIT  70 AT TIME STEP    2, STRESS PERIOD   8
 
 
 
 
 
 
 
 
 UBDSV3 SAVING "FARM  NET  RECH." ON UNIT  70 AT TIME STEP    2, STRESS PERIOD   8
 UBDSV4 SAVING " GHOST-NODE FLUX" ON UNIT  70 AT TIME STEP    2, STRESS PERIOD   8
 UBDSV4 SAVING " GHOST-NODE FLUX" ON UNIT  70 AT TIME STEP    2, STRESS PERIOD   8
 UBDSV4 SAVING " GHOST-NODE FLUX" ON UNIT  70 AT TIME STEP    2, STRESS PERIOD   8
1
  VOLUMETRIC BUDGET FOR ENTIRE MODEL AT END OF TIME STEP    2 IN STRESS PERIOD      8
  ------------------------------------------------------------------------------

     CUMULATIVE VOLUMES      L**3       RATES FOR THIS TIME STEP      L**3/T
     ------------------                 ------------------------

           IN:                                      IN:
           ---                                      ---
             STORAGE =    11708027.0000               STORAGE =       11169.9941
       CONSTANT HEAD =           0.0000         CONSTANT HEAD =           0.0000
     HEAD DEP BOUNDS =     1636980.2500       HEAD DEP BOUNDS =        8546.5137
      STREAM LEAKAGE =     4538913.0000        STREAM LEAKAGE =       15143.3916
                 MNW =       18459.5371                   MNW =          14.8471
          FARM WELLS =           0.0000            FARM WELLS =           0.0000
    FARM  NET  RECH. =     4909179.5000      FARM  NET  RECH. =       13349.1709
     GHOST-NODE FLUX =     1141949.1250       GHOST-NODE FLUX =        6504.2100

            TOTAL IN =    23953510.0000              TOTAL IN =       54728.1289

          OUT:                                     OUT:
          ----                                     ----
             STORAGE =     3260087.7500               STORAGE =        1906.5825
       CONSTANT HEAD =           0.0000         CONSTANT HEAD =           0.0000
     HEAD DEP BOUNDS =     4226225.5000       HEAD DEP BOUNDS =       16070.1865
      STREAM LEAKAGE =      298666.7500        STREAM LEAKAGE =           0.0000
                 MNW =     2284951.5000                   MNW =        8309.6602
          FARM WELLS =     2835229.0000            FARM WELLS =       15864.1006
    FARM  NET  RECH. =     1079211.8750      FARM  NET  RECH. =        3764.3350
     GHOST-NODE FLUX =     9969142.0000       GHOST-NODE FLUX =        8813.2910

           TOTAL OUT =    23953516.0000             TOTAL OUT =       54728.1562

            IN - OUT =          -6.0000              IN - OUT =      -2.7344E-02

 PERCENT DISCREPANCY =          -0.00     PERCENT DISCREPANCY =          -0.00






          TIME SUMMARY AT END OF TIME STEP     2 IN STRESS PERIOD      8
                    SECONDS     MINUTES      HOURS       DAYS        YEARS
                    -----------------------------------------------------------
   TIME STEP LENGTH 1.31414E+06  21902.      365.04      15.210     4.16427E-02
 STRESS PERIOD TIME 2.62829E+06  43805.      730.08      30.420     8.32854E-02
         TOTAL TIME 2.10263E+07 3.50438E+05  5840.6      243.36     0.66628    
1
1
                            STRESS PERIOD NO.      9, LENGTH =   30.42000    
                            -----------------------------------------------

                              NUMBER OF TIME STEPS =     2

                               MULTIPLIER FOR DELT =     1.000

                            INITIAL TIME STEP SIZE =   15.21000    

 REUSING NON-PARAMETER GHB CELLS FROM LAST STRESS PERIOD

     92 GHB CELLS

 REUSING STREAM SEGMENT DATA FROM LAST STRESS PERIOD

 REUSING MNW7  FROM LAST STRESS PERIOD

 Parameter:  WELLS1
 WELL NO. LAYER    ROW    COL  F-WELL ID    FARM ID         QMAX         QMAXRESET       
 ----------------------------------------------------------------------------------------
       1      1      5      6          1          1      5.0000E+03              0
       2      1      8      7          2          1      5.0000E+03              0
       3      1      8      9          3          1      5.0000E+03              0
       4      1      5      9          4          2      3.0000E+03              0
       5      1      6     10          5          2      2.0000E+03              0
       6      1      7     11          6          2      1.0000E+03              0
       7      1     18      3          7          3      2.0000E+03              0
       8      1     21      3          8          3      4.0000E+03              0
       9      1     18     19          9          4      3.0000E+03              0
      10      1     21     19         10          4      5.0000E+03              0
      11      0      6      2        -11          5      5.0000E+03              1
      12      0      8      2        -12          5      5.0000E+03              1
      13      0     10      2        -13          5      5.0000E+03              1
      14      0      3     19        -14          6      1.0000E+04              1
      15      0      6     17        -15          6      6.0000E+03              1

 NUMBER OF ACTIVE FARM WELLS:       15

 THE SINGLE LAYER FMP- OR MNW- WELL IN ROW      8 AND COLUMN      7 IS LOCATED IN AN INACTIVE CELL (IBOUND=0) AND HAS BEEN EXCLUDED FROM THE TOTAL MAXIMUM CAPACITY PER FARM

 THE SINGLE LAYER FMP- OR MNW- WELL IN ROW      8 AND COLUMN      9 IS LOCATED IN AN INACTIVE CELL (IBOUND=0) AND HAS BEEN EXCLUDED FROM THE TOTAL MAXIMUM CAPACITY PER FARM

 THE SINGLE LAYER FMP- OR MNW- WELL IN ROW      6 AND COLUMN     10 IS LOCATED IN AN INACTIVE CELL (IBOUND=0) AND HAS BEEN EXCLUDED FROM THE TOTAL MAXIMUM CAPACITY PER FARM

 THE SINGLE LAYER FMP- OR MNW- WELL IN ROW      7 AND COLUMN     11 IS LOCATED IN AN INACTIVE CELL (IBOUND=0) AND HAS BEEN EXCLUDED FROM THE TOTAL MAXIMUM CAPACITY PER FARM

 FARM-ID  NUMBER OF WELLS PER FARM  TOTAL MAX.CAPACITY PER FARM
       1                         1                    5000.0000
       2                         1                    3000.0000
       3                         2                    6000.0000
       4                         2                    8000.0000
       5                         3                   15000.0000
       6                         2                   16000.0000
       7                         0                       0.0000
       8                         0                       0.0000

 READING LIST ON UNIT   20 WITH FILE NAME: C:\MF_OWHM_Release_Package\MF_OWHM_v1_0\examples\test-run-owhm-lgr\fmp-lgr-nwt\DATA_FMP\OFE.in
 LIST SCALING FACTOR= 0.90000    
 (THE SCALE FACTOR WAS APPLIED TO FIELDS   2 -   7)

 Reading list on unit   30

 Reading list on unit   40

  REF. EVAPOTRANSPIRATION =  4.840000E-03

 READING LIST ON UNIT   50 WITH FILE NAME: C:\MF_OWHM_Release_Package\MF_OWHM_v1_0\examples\test-run-owhm-lgr\fmp-lgr-nwt\DATA_FMP\FTE.in

Transpiratory and Evaporative Fractions of Crop Consumptive Use
    % Transpiration % Evap. for Precip. % Evap. for Irrig.
    1          0.000          1.000          0.500
    2          0.950          0.050          0.050
    3          0.661          0.339          0.339
    4          0.125          0.875          0.875
    5          0.927          0.073          0.000
    6          0.500          0.500          0.000

 READING LIST ON UNIT   60 WITH FILE NAME: C:\MF_OWHM_Release_Package\MF_OWHM_v1_0\examples\test-run-owhm-lgr\fmp-lgr-nwt\DATA_FMP\INEFFSW.in

FRACTIONS OF IN-EFFICIENT LOSSES TO SW-RUNOFF FROM 
     PRECIPITATION:  IRRIGATION:
    1          0.500          0.600
    2          0.400          0.300
    3          0.600          0.500
    4          0.700          0.600
    5          0.500          0.000
    6          0.300          0.000

       PRECIPITATION FLUX =  8.000000E-05

 OPENING FILE WITH FILENAME: ./DATA_FMP/NRDV.in
 AND UNIT NUMBER: -155
 READING SCALE FACTOR LIST ON UNIT   80 ASSOCIATED WITH FILE: C:\MF_OWHM_Release_Package\MF_OWHM_v1_0\examples\test-run-owhm-lgr\fmp-lgr-nwt\DATA_FMP\NRDV.in
 FIELD     SCALE FACTOR
     1       1.0000    
     2       4.0000    
     3       1.0000    
     4       1.0000    

UNRANKED LIST OF NON-ROUTED DELIVERIES TO FARMS [L3]:
TYPE:             1

FARM-ID  VOLUME:
      1   6.000E+04
      2   6.000E+04
      3   8.000E+04
      4   4.000E+04
      5   4.000E+04
      6   8.000E+04
      7   0.000E+00
      8   0.000E+00

FARM-ID  PRIORITY RANK OF NRD-TYPE:
      1           1
      2           1
      3           1
      4           1
      5           1
      6           1
      7           1
      8           1

FARM-ID  USE-FLAG:
         0 = SUFFICIENT USE
         1 = ABSOLUTE USE (RECHARGE SURPLUS BACK INTO CANAL)
         2 = ABSOLUTE USE (INJECT SURPLUS INTO FARM-WELLS)
      1           0
      2           0
      3           0
      4           0
      5           0
      6           0
      7           0
      8           0

LIST OF NON-ROUTED DELIVERIES IN RANKED SEQUENCE [L3/T]:

FARM-ID  RATE:
      1   1.972E+03
      2   1.972E+03
      3   2.630E+03
      4   1.315E+03
      5   1.315E+03
      6   2.630E+03
      7   0.000E+00
      8   0.000E+00

FARM-ID  USE-FLAG:
         0 = SUFFICIENT USE
         1 = ABSOLUTE USE (RECHARGE SURPLUS BACK INTO CANAL)
         2 = ABSOLUTE USE (INJECT SURPLUS INTO FARM-WELLS)
      1           0
      2           0
      3           0
      4           0
      5           0
      6           0
      7           0
      8           0

SURFACE-WATER FARM ALLOTMENT HEIGHT [L]:   0.075
 
 SOLVING FOR HEAD 
                                                   Max.-Head-Change                        Max.-Flux-Residual
  Residual-Control   Outer-Iter.   Inner-Iter.     Column Row Layer    Max.-Head-Change    Column Row Layer    Max.-Flux-Residual            L2-New               L2-Old           Solver-Max-Delh
          0                 1           8            19   21     1       0.2360497682E+01       6    5    1       0.4968442272E+04      0.9370978527E+04      0.1486596778E+00      0.2360497682E+01
          0                 2           9            19    3     3      -0.4474780869E+01       6    5    1      -0.5541105500E+04      0.9208538295E+04      0.9370978527E+04     -0.4474780869E+01
          0                 3           8            19   21     1      -0.1508755780E+01      19   21    1      -0.3335876537E+04      0.3916015407E+04      0.9208538295E+04     -0.1508755780E+01
          0                 4           7            19    3     3      -0.2604937019E+00      13   16    1       0.2839066759E+03      0.4690140587E+03      0.3916015407E+04     -0.2604937019E+00
          0                 5           6            19    3     3      -0.6267027759E-01      19    3    2      -0.1976223189E+02      0.4205809183E+02      0.4690140587E+03     -0.6267027759E-01
          0                 6           5            19    3     3      -0.1504887588E-01      13   16    1      -0.6778588422E+01      0.1096963937E+02      0.4205809183E+02     -0.1504887588E-01
          0                 7           4            19    3     3      -0.3607898921E-02      13   16    1      -0.3143031221E+01      0.3695318208E+01      0.1096963937E+02     -0.3607898921E-02
          0                 8           4            19    3     3      -0.8638398284E-03      13   16    1      -0.1175971138E+01      0.1276118217E+01      0.3695318208E+01     -0.8638398284E-03
          0                 9           3            19    3     3      -0.2063876263E-03      13   16    1      -0.4040590092E+00      0.4366248521E+00      0.1276118217E+01     -0.2063876263E-03
          0                10           2            19    3     3      -0.4856691100E-04      13   16    1      -0.1332348696E+00      0.1510996565E+00      0.4366248521E+00     -0.4856691100E-04

    ------------------------------------------------
       NWT REQUIRED           10 OUTER ITERATIONS 
       AND A TOTAL OF         56 INNER ITERATIONS.
    ------------------------------------------------
                                                   Max.-Head-Change                        Max.-Flux-Residual
  Residual-Control   Outer-Iter.   Inner-Iter.     Column Row Layer    Max.-Head-Change    Column Row Layer    Max.-Flux-Residual            L2-New               L2-Old           Solver-Max-Delh
          0                 1           8             8   10     1      -0.5869560215E+00      17   15    1      -0.8458520069E+03      0.1623581006E+04      0.1510996565E+00     -0.5869560215E+00
          0                 2           7            12   11     1      -0.3417649942E+00      12   11    1      -0.5864608890E+03      0.7674386668E+03      0.1623581006E+04     -0.3417649942E+00
          0                 3           6            12   11     1       0.2899439614E-01      12   11    1       0.7491434544E+02      0.1119109470E+03      0.7674386668E+03      0.2899439614E-01
          0                 4           4            12   11     1       0.1447517551E-02      12   11    1       0.3736784038E+01      0.5644990044E+01      0.1119109470E+03      0.1447517551E-02
          0                 5           3            12   20     1      -0.7667155943E-04      12   20    1      -0.2522411071E+00      0.3864651154E+00      0.5644990044E+01     -0.7667155943E-04

    ------------------------------------------------
       NWT REQUIRED            5 OUTER ITERATIONS 
       AND A TOTAL OF         28 INNER ITERATIONS.
    ------------------------------------------------
                                                   Max.-Head-Change                        Max.-Flux-Residual
  Residual-Control   Outer-Iter.   Inner-Iter.     Column Row Layer    Max.-Head-Change    Column Row Layer    Max.-Flux-Residual            L2-New               L2-Old           Solver-Max-Delh
          0                 1           7             9    9     1       0.2561690173E+00       9    9    1       0.2355052038E+03      0.3510724016E+03      0.3864651154E+00      0.2561690173E+00
          0                 2           6             9    9     1      -0.2226035573E-01       9    9    1      -0.2383816978E+02      0.3537330656E+02      0.3510724016E+03     -0.2226035573E-01
          0                 3           4             9    9     1      -0.1114919300E-02       9    9    1      -0.1194249483E+01      0.1909605286E+01      0.3537330656E+02     -0.1114919300E-02
          0                 4           3             9    9     1      -0.5599292552E-04       2    8    1      -0.6946669030E-01      0.1429069517E+00      0.1909605286E+01     -0.5599292552E-04

    ------------------------------------------------
       NWT REQUIRED            4 OUTER ITERATIONS 
       AND A TOTAL OF         20 INNER ITERATIONS.
    ------------------------------------------------
                                                   Max.-Head-Change                        Max.-Flux-Residual
  Residual-Control   Outer-Iter.   Inner-Iter.     Column Row Layer    Max.-Head-Change    Column Row Layer    Max.-Flux-Residual            L2-New               L2-Old           Solver-Max-Delh
          0                 1           6             9    9     1       0.1155745869E+00       9    9    1       0.9706794814E+02      0.1679759337E+03      0.1429069517E+00      0.1155745869E+00
          0                 2           5             9    9     1      -0.1000870228E-01       9    9    1      -0.9759752254E+01      0.1690151381E+02      0.1679759337E+03     -0.1000870228E-01
          0                 3           4            12   20     1      -0.5497054820E-03      12   20    1      -0.1387291011E+01      0.1631880397E+01      0.1690151381E+02     -0.5497054820E-03
          0                 4           3            12   20     1      -0.2747400041E-04      12   20    1      -0.6906898523E-01      0.1035067759E+00      0.1631880397E+01     -0.2747400041E-04

    ------------------------------------------------
       NWT REQUIRED            4 OUTER ITERATIONS 
       AND A TOTAL OF         18 INNER ITERATIONS.
    ------------------------------------------------
                                                   Max.-Head-Change                        Max.-Flux-Residual
  Residual-Control   Outer-Iter.   Inner-Iter.     Column Row Layer    Max.-Head-Change    Column Row Layer    Max.-Flux-Residual            L2-New               L2-Old           Solver-Max-Delh
          0                 1           6             7    9     1       0.3107591984E-01       7    9    1       0.3610190468E+02      0.6230929305E+02      0.1035067759E+00      0.3107591984E-01
          0                 2           5             7    9     1      -0.2684899849E-02       7    9    1      -0.3615279364E+01      0.6311895938E+01      0.6230929305E+02     -0.2684899849E-02
          0                 3           4            12   20     1      -0.4211274313E-03      12   20    1      -0.1075106285E+01      0.1124807536E+01      0.6311895938E+01     -0.4211274313E-03
          0                 4           2            12   20     2      -0.2209223087E-04      13   20    1      -0.4659484903E-01      0.7611386360E-01      0.1124807536E+01     -0.2209223087E-04

    ------------------------------------------------
       NWT REQUIRED            4 OUTER ITERATIONS 
       AND A TOTAL OF         17 INNER ITERATIONS.
    ------------------------------------------------
                                                   Max.-Head-Change                        Max.-Flux-Residual
  Residual-Control   Outer-Iter.   Inner-Iter.     Column Row Layer    Max.-Head-Change    Column Row Layer    Max.-Flux-Residual            L2-New               L2-Old           Solver-Max-Delh
          0                 1           5             9    9     2      -0.1543462823E-01       9    9    1      -0.1989070665E+02      0.3225044316E+02      0.7611386360E-01     -0.1543462823E-01
          0                 2           4             9    9     2       0.1333420087E-02       9    9    1       0.1989291918E+01      0.3271546140E+01      0.3225044316E+02      0.1333420087E-02
          0                 3           3            12   20     1      -0.2346108490E-03      12   20    1      -0.5985827567E+00      0.6215605663E+00      0.3271546140E+01     -0.2346108490E-03
          0                 4           2            12   20     2      -0.1217824762E-04      13   20    1      -0.2491590183E-01      0.4053726914E-01      0.6215605663E+00     -0.1217824762E-04

    ------------------------------------------------
       NWT REQUIRED            4 OUTER ITERATIONS 
       AND A TOTAL OF         14 INNER ITERATIONS.
    ------------------------------------------------
                                                   Max.-Head-Change                        Max.-Flux-Residual
  Residual-Control   Outer-Iter.   Inner-Iter.     Column Row Layer    Max.-Head-Change    Column Row Layer    Max.-Flux-Residual            L2-New               L2-Old           Solver-Max-Delh
          0                 1           5             9    9     1      -0.1528133572E-01       9    9    1      -0.1789845954E+02      0.2054258719E+02      0.4053726914E-01     -0.1528133572E-01
          0                 2           4             9    9     1       0.1319611750E-02       9    9    1       0.1789113275E+01      0.2067742258E+01      0.2054258719E+02      0.1319611750E-02
          0                 3           3            12   20     1      -0.1030883094E-03      12   20    1      -0.2602304742E+00      0.2806001771E+00      0.2067742258E+01     -0.1030883094E-03
          0                 4           1            12   20     1      -0.4464143647E-05      12   20    1      -0.1249150361E-01      0.2205338737E-01      0.2806001771E+00     -0.4464143647E-05

    ------------------------------------------------
       NWT REQUIRED            4 OUTER ITERATIONS 
       AND A TOTAL OF         13 INNER ITERATIONS.
    ------------------------------------------------
                                                   Max.-Head-Change                        Max.-Flux-Residual
  Residual-Control   Outer-Iter.   Inner-Iter.     Column Row Layer    Max.-Head-Change    Column Row Layer    Max.-Flux-Residual            L2-New               L2-Old           Solver-Max-Delh
          0                 1           5             9    9     1      -0.7791108154E-02       9    9    1      -0.8714776951E+01      0.9492723294E+01      0.2205338737E-01     -0.7791108154E-02
          0                 2           4             9    9     1       0.6724074468E-03       9    9    1       0.8713059616E+00      0.9525193662E+00      0.9492723294E+01      0.6724074468E-03
          0                 3           2            12   20     1      -0.3416224596E-04      12   20    1      -0.8758857351E-01      0.1013151992E+00      0.9525193662E+00     -0.3416224596E-04

    ------------------------------------------------
       NWT REQUIRED            3 OUTER ITERATIONS 
       AND A TOTAL OF         11 INNER ITERATIONS.
    ------------------------------------------------
                                                   Max.-Head-Change                        Max.-Flux-Residual
  Residual-Control   Outer-Iter.   Inner-Iter.     Column Row Layer    Max.-Head-Change    Column Row Layer    Max.-Flux-Residual            L2-New               L2-Old           Solver-Max-Delh
          0                 1           4             9    9     1      -0.1931308493E-02       9    9    1      -0.2121969330E+01      0.2749071662E+01      0.1013151992E+00     -0.1931308493E-02
          0                 2           3             9    9     1       0.1671068592E-03       9    9    1       0.2123848100E+00      0.2759410420E+00      0.2749071662E+01      0.1671068592E-03
          0                 3           2             9    9     1       0.8190646817E-05      12   20    1      -0.1656421775E-01      0.2463668204E-01      0.2759410420E+00      0.8190646817E-05

    ------------------------------------------------
       NWT REQUIRED            3 OUTER ITERATIONS 
       AND A TOTAL OF          9 INNER ITERATIONS.
    ------------------------------------------------
                                                   Max.-Head-Change                        Max.-Flux-Residual
  Residual-Control   Outer-Iter.   Inner-Iter.     Column Row Layer    Max.-Head-Change    Column Row Layer    Max.-Flux-Residual            L2-New               L2-Old           Solver-Max-Delh
          0                 1           4             9    9     2       0.1039649798E-02       6    8    1      -0.6238252080E+00      0.1449747725E+01      0.2463668204E-01      0.1039649798E-02
          0                 2           3             9    9     2      -0.9002952248E-04       6    8    1       0.6243022275E-01      0.1451747274E+00      0.1449747725E+01     -0.9002952248E-04

    ------------------------------------------------
       NWT REQUIRED            2 OUTER ITERATIONS 
       AND A TOTAL OF          7 INNER ITERATIONS.
    ------------------------------------------------
                                                   Max.-Head-Change                        Max.-Flux-Residual
  Residual-Control   Outer-Iter.   Inner-Iter.     Column Row Layer    Max.-Head-Change    Column Row Layer    Max.-Flux-Residual            L2-New               L2-Old           Solver-Max-Delh
          0                 1           4             9    9     2       0.1018992297E-02       9    9    1       0.9404769136E+00      0.1322228400E+01      0.1451747274E+00      0.1018992297E-02
          0                 2           3             9    9     2      -0.8816334968E-04       9    9    1      -0.9422721597E-01      0.1342885609E+00      0.1322228400E+01     -0.8816334968E-04

    ------------------------------------------------
       NWT REQUIRED            2 OUTER ITERATIONS 
       AND A TOTAL OF          7 INNER ITERATIONS.
    ------------------------------------------------

 OUTPUT CONTROL FOR STRESS PERIOD      9   TIME STEP     1
    SAVE BUDGET
 UBDSV1 SAVING "         STORAGE" ON UNIT  70 AT TIME STEP    1, STRESS PERIOD   9
 UBDSV2 SAVING "   CONSTANT HEAD" ON UNIT  70 AT TIME STEP    1, STRESS PERIOD   9
 UBDSV1 SAVING "FLOW RIGHT FACE " ON UNIT  70 AT TIME STEP    1, STRESS PERIOD   9
 UBDSV1 SAVING "FLOW FRONT FACE " ON UNIT  70 AT TIME STEP    1, STRESS PERIOD   9
 UBDSV1 SAVING "FLOW LOWER FACE " ON UNIT  70 AT TIME STEP    1, STRESS PERIOD   9
 UBDSV4 SAVING " HEAD DEP BOUNDS" ON UNIT  70 AT TIME STEP    1, STRESS PERIOD   9
 UBDSV4 SAVING "  STREAM LEAKAGE" ON UNIT  70 AT TIME STEP    1, STRESS PERIOD   9



 UBDSV4 SAVING "             MNW" ON UNIT  70 AT TIME STEP    1, STRESS PERIOD   9
 
 
 
 
 
 
 
 
 UBDSV3 SAVING "FARM  NET  RECH." ON UNIT  70 AT TIME STEP    1, STRESS PERIOD   9
 UBDSV4 SAVING " GHOST-NODE FLUX" ON UNIT  70 AT TIME STEP    1, STRESS PERIOD   9
 UBDSV4 SAVING " GHOST-NODE FLUX" ON UNIT  70 AT TIME STEP    1, STRESS PERIOD   9
 UBDSV4 SAVING " GHOST-NODE FLUX" ON UNIT  70 AT TIME STEP    1, STRESS PERIOD   9
 
 SOLVING FOR HEAD 
                                                   Max.-Head-Change                        Max.-Flux-Residual
  Residual-Control   Outer-Iter.   Inner-Iter.     Column Row Layer    Max.-Head-Change    Column Row Layer    Max.-Flux-Residual            L2-New               L2-Old           Solver-Max-Delh
          0                 1           8            19    3     4      -0.1941577377E+01      17   15    1       0.9251873069E+03      0.2069430092E+04      0.1342885609E+00     -0.1941577377E+01
          0                 2           7            19    3     4       0.2806352952E+00      12   12    1       0.6499563970E+03      0.1075918229E+04      0.2069430092E+04      0.2806352952E+00
          0                 3           6            19    3     4       0.2792883911E-01      12   12    1      -0.5152660516E+02      0.7772646338E+02      0.1075918229E+04      0.2792883911E-01
          0                 4           5            19    3     3       0.5606086050E-02      12   12    1      -0.8658169428E+01      0.1322348168E+02      0.7772646338E+02      0.5606086050E-02
          0                 5           4            19    3     3       0.1329054389E-02      12   12    1      -0.9350289191E+00      0.1970088557E+01      0.1322348168E+02      0.1329054389E-02
          0                 6           3            19    3     3       0.3196666896E-03      13   16    1      -0.1941829143E+00      0.4312547802E+00      0.1970088557E+01      0.3196666896E-03
          0                 7           2            19    3     3       0.7591079542E-04       2    8    1       0.5931333185E-01      0.1144758675E+00      0.4312547802E+00      0.7591079542E-04

    ------------------------------------------------
       NWT REQUIRED            7 OUTER ITERATIONS 
       AND A TOTAL OF         35 INNER ITERATIONS.
    ------------------------------------------------
                                                   Max.-Head-Change                        Max.-Flux-Residual
  Residual-Control   Outer-Iter.   Inner-Iter.     Column Row Layer    Max.-Head-Change    Column Row Layer    Max.-Flux-Residual            L2-New               L2-Old           Solver-Max-Delh
          0                 1           8             9    9     1      -0.7134333875E+00      17   15    1      -0.8458743741E+03      0.1654759600E+04      0.1144758675E+00     -0.7134333875E+00
          0                 2           7            12   11     1      -0.3032082037E+00      12   11    1      -0.5393680065E+03      0.7272505372E+03      0.1654759600E+04     -0.3032082037E+00
          0                 3           6            12   10     1      -0.2189004920E-01      12   11    1       0.6605596668E+02      0.1126827371E+03      0.7272505372E+03     -0.2189004920E-01
          0                 4           4            12   10     1       0.1877438902E-02      12   10    1       0.3956445335E+01      0.5563698074E+01      0.1126827371E+03      0.1877438902E-02
          0                 5           3            12   20     1      -0.1069092369E-03      12   20    1      -0.3526855549E+00      0.4565546758E+00      0.5563698074E+01     -0.1069092369E-03
          0                 6           2            12   20     1      -0.3076686387E-04      12   20    1      -0.1019952096E+00      0.1086618430E+00      0.4565546758E+00     -0.3076686387E-04

    ------------------------------------------------
       NWT REQUIRED            6 OUTER ITERATIONS 
       AND A TOTAL OF         30 INNER ITERATIONS.
    ------------------------------------------------
                                                   Max.-Head-Change                        Max.-Flux-Residual
  Residual-Control   Outer-Iter.   Inner-Iter.     Column Row Layer    Max.-Head-Change    Column Row Layer    Max.-Flux-Residual            L2-New               L2-Old           Solver-Max-Delh
          0                 1           7             9    9     1       0.2373753786E+00       9    9    1       0.2321702901E+03      0.3628632487E+03      0.1086618430E+00      0.2373753786E+00
          0                 2           6             9    9     1      -0.2061086968E-01       9    9    1      -0.2345107665E+02      0.3650493127E+02      0.3628632487E+03     -0.2061086968E-01
          0                 3           4             9    9     1      -0.1032498801E-02       9    9    1      -0.1174526847E+01      0.1853919972E+01      0.3650493127E+02     -0.1032498801E-02
          0                 4           3             9    9     1      -0.5205129513E-04       2    8    1      -0.7389076543E-01      0.1468344638E+00      0.1853919972E+01     -0.5205129513E-04

    ------------------------------------------------
       NWT REQUIRED            4 OUTER ITERATIONS 
       AND A TOTAL OF         20 INNER ITERATIONS.
    ------------------------------------------------
                                                   Max.-Head-Change                        Max.-Flux-Residual
  Residual-Control   Outer-Iter.   Inner-Iter.     Column Row Layer    Max.-Head-Change    Column Row Layer    Max.-Flux-Residual            L2-New               L2-Old           Solver-Max-Delh
          0                 1           6             9    9     1       0.1242687213E+00       9    9    1       0.1139732277E+03      0.1818972394E+03      0.1468344638E+00      0.1242687213E+00
          0                 2           5             9    9     1      -0.1076338076E-01       9    9    1      -0.1146247713E+02      0.1826361208E+02      0.1818972394E+03     -0.1076338076E-01
          0                 3           4             9    9     1      -0.5386812376E-03      12   20    1      -0.6890764362E+00      0.1154665811E+01      0.1826361208E+02     -0.5386812376E-03
          0                 4           3            12   20     1      -0.4319809242E-04      12   20    1      -0.1224282940E+00      0.1432511490E+00      0.1154665811E+01     -0.4319809242E-04

    ------------------------------------------------
       NWT REQUIRED            4 OUTER ITERATIONS 
       AND A TOTAL OF         18 INNER ITERATIONS.
    ------------------------------------------------
                                                   Max.-Head-Change                        Max.-Flux-Residual
  Residual-Control   Outer-Iter.   Inner-Iter.     Column Row Layer    Max.-Head-Change    Column Row Layer    Max.-Flux-Residual            L2-New               L2-Old           Solver-Max-Delh
          0                 1           6             8    9     1       0.3332693710E-01       7    9    1       0.3409717274E+02      0.6637628781E+02      0.1432511490E+00      0.3332693710E-01
          0                 2           5             8    9     1      -0.2879848990E-02       7    9    1      -0.3414714579E+01      0.6685861689E+01      0.6637628781E+02     -0.2879848990E-02
          0                 3           3            12   20     1      -0.2414814471E-03      12   20    1      -0.6985589893E+00      0.7768963952E+00      0.6685861689E+01     -0.2414814471E-03
          0                 4           3            12   20     1      -0.4283398742E-04      12   20    1      -0.1241637226E+00      0.1292445805E+00      0.7768963952E+00     -0.4283398742E-04

    ------------------------------------------------
       NWT REQUIRED            4 OUTER ITERATIONS 
       AND A TOTAL OF         17 INNER ITERATIONS.
    ------------------------------------------------
                                                   Max.-Head-Change                        Max.-Flux-Residual
  Residual-Control   Outer-Iter.   Inner-Iter.     Column Row Layer    Max.-Head-Change    Column Row Layer    Max.-Flux-Residual            L2-New               L2-Old           Solver-Max-Delh
          0                 1           5             9    9     2      -0.1033078842E-01       7    9    1       0.1310763812E+02      0.2665399826E+02      0.1292445805E+00     -0.1033078842E-01
          0                 2           4             9    9     2       0.8926906938E-03       7    9    1      -0.1311472808E+01      0.2706089982E+01      0.2665399826E+02      0.8926906938E-03
          0                 3           3            12   20     1      -0.1504512945E-03      12   20    1      -0.4345297999E+00      0.4554951193E+00      0.2706089982E+01     -0.1504512945E-03
          0                 4           2            12   20     1      -0.2671634095E-04      12   20    1      -0.7707021153E-01      0.7946050038E-01      0.4554951193E+00     -0.2671634095E-04

    ------------------------------------------------
       NWT REQUIRED            4 OUTER ITERATIONS 
       AND A TOTAL OF         14 INNER ITERATIONS.
    ------------------------------------------------
                                                   Max.-Head-Change                        Max.-Flux-Residual
  Residual-Control   Outer-Iter.   Inner-Iter.     Column Row Layer    Max.-Head-Change    Column Row Layer    Max.-Flux-Residual            L2-New               L2-Old           Solver-Max-Delh
          0                 1           5             9    9     2      -0.1341773858E-01       9    9    1      -0.1564242648E+02      0.1819943152E+02      0.7946050038E-01     -0.1341773858E-01
          0                 2           4             9    9     2       0.1158653756E-02       9    9    1       0.1563330953E+01      0.1833074745E+01      0.1819943152E+02      0.1158653756E-02
          0                 3           3            12   20     1      -0.9512784037E-04      12   20    1      -0.2391013043E+00      0.2571532725E+00      0.1833074745E+01     -0.9512784037E-04

    ------------------------------------------------
       NWT REQUIRED            3 OUTER ITERATIONS 
       AND A TOTAL OF         12 INNER ITERATIONS.
    ------------------------------------------------
                                                   Max.-Head-Change                        Max.-Flux-Residual
  Residual-Control   Outer-Iter.   Inner-Iter.     Column Row Layer    Max.-Head-Change    Column Row Layer    Max.-Flux-Residual            L2-New               L2-Old           Solver-Max-Delh
          0                 1           5             9    9     1      -0.7972868928E-02       9    9    1      -0.8936786218E+01      0.9826382867E+01      0.2571532725E+00     -0.7972868928E-02
          0                 2           4             9    9     1       0.6887781292E-03       9    9    1       0.8936057270E+00      0.9858725536E+00      0.9826382867E+01      0.6887781292E-03
          0                 3           2             9    9     1       0.3426580444E-04      12   20    1      -0.8747280802E-01      0.1012477482E+00      0.9858725536E+00      0.3426580444E-04

    ------------------------------------------------
       NWT REQUIRED            3 OUTER ITERATIONS 
       AND A TOTAL OF         11 INNER ITERATIONS.
    ------------------------------------------------
                                                   Max.-Head-Change                        Max.-Flux-Residual
  Residual-Control   Outer-Iter.   Inner-Iter.     Column Row Layer    Max.-Head-Change    Column Row Layer    Max.-Flux-Residual            L2-New               L2-Old           Solver-Max-Delh
          0                 1           4             9    9     1      -0.2536655814E-02       9    9    1      -0.2867644281E+01      0.3597872862E+01      0.1012477482E+00     -0.2536655814E-02
          0                 2           3             9    9     1       0.2191470316E-03       9    9    1       0.2867724965E+00      0.3611479476E+00      0.3597872862E+01      0.2191470316E-03
          0                 3           2             9    9     1       0.1114744183E-04      12   20    1      -0.2047954610E-01      0.2920658549E-01      0.3611479476E+00      0.1114744183E-04

    ------------------------------------------------
       NWT REQUIRED            3 OUTER ITERATIONS 
       AND A TOTAL OF          9 INNER ITERATIONS.
    ------------------------------------------------
                                                   Max.-Head-Change                        Max.-Flux-Residual
  Residual-Control   Outer-Iter.   Inner-Iter.     Column Row Layer    Max.-Head-Change    Column Row Layer    Max.-Flux-Residual            L2-New               L2-Old           Solver-Max-Delh
          0                 1           4             9    9     3       0.8052718006E-03      11   11    1       0.6681094917E+00      0.1483275022E+01      0.2920658549E-01      0.8052718006E-03
          0                 2           3             9    9     3      -0.6972621628E-04      11   11    1      -0.6672821660E-01      0.1493558806E+00      0.1483275022E+01     -0.6972621628E-04

    ------------------------------------------------
       NWT REQUIRED            2 OUTER ITERATIONS 
       AND A TOTAL OF          7 INNER ITERATIONS.
    ------------------------------------------------
                                                   Max.-Head-Change                        Max.-Flux-Residual
  Residual-Control   Outer-Iter.   Inner-Iter.     Column Row Layer    Max.-Head-Change    Column Row Layer    Max.-Flux-Residual            L2-New               L2-Old           Solver-Max-Delh
          0                 1           4             9    9     2       0.9326785598E-03       9    9    1       0.7370579373E+00      0.1227637910E+01      0.1493558806E+00      0.9326785598E-03
          0                 2           3             9    9     2      -0.8051577256E-04       9    9    1      -0.7368568183E-01      0.1242976028E+00      0.1227637910E+01     -0.8051577256E-04

    ------------------------------------------------
       NWT REQUIRED            2 OUTER ITERATIONS 
       AND A TOTAL OF          7 INNER ITERATIONS.
    ------------------------------------------------

 OUTPUT CONTROL FOR STRESS PERIOD      9   TIME STEP     2
    PRINT BUDGET
    SAVE HEAD FOR ALL LAYERS
    SAVE BUDGET
 UBDSV1 SAVING "         STORAGE" ON UNIT  70 AT TIME STEP    2, STRESS PERIOD   9
 UBDSV2 SAVING "   CONSTANT HEAD" ON UNIT  70 AT TIME STEP    2, STRESS PERIOD   9
 UBDSV1 SAVING "FLOW RIGHT FACE " ON UNIT  70 AT TIME STEP    2, STRESS PERIOD   9
 UBDSV1 SAVING "FLOW FRONT FACE " ON UNIT  70 AT TIME STEP    2, STRESS PERIOD   9
 UBDSV1 SAVING "FLOW LOWER FACE " ON UNIT  70 AT TIME STEP    2, STRESS PERIOD   9
 UBDSV4 SAVING " HEAD DEP BOUNDS" ON UNIT  70 AT TIME STEP    2, STRESS PERIOD   9
 UBDSV4 SAVING "  STREAM LEAKAGE" ON UNIT  70 AT TIME STEP    2, STRESS PERIOD   9



 UBDSV4 SAVING "             MNW" ON UNIT  70 AT TIME STEP    2, STRESS PERIOD   9
 
 
 
 
 
 
 
 
 UBDSV3 SAVING "FARM  NET  RECH." ON UNIT  70 AT TIME STEP    2, STRESS PERIOD   9
 UBDSV4 SAVING " GHOST-NODE FLUX" ON UNIT  70 AT TIME STEP    2, STRESS PERIOD   9
 UBDSV4 SAVING " GHOST-NODE FLUX" ON UNIT  70 AT TIME STEP    2, STRESS PERIOD   9
 UBDSV4 SAVING " GHOST-NODE FLUX" ON UNIT  70 AT TIME STEP    2, STRESS PERIOD   9

 HEAD WILL BE SAVED ON UNIT   22 AT END OF TIME STEP     2, STRESS PERIOD      9
1
  VOLUMETRIC BUDGET FOR ENTIRE MODEL AT END OF TIME STEP    2 IN STRESS PERIOD      9
  ------------------------------------------------------------------------------

     CUMULATIVE VOLUMES      L**3       RATES FOR THIS TIME STEP      L**3/T
     ------------------                 ------------------------

           IN:                                      IN:
           ---                                      ---
             STORAGE =    12123402.0000               STORAGE =       12989.7812
       CONSTANT HEAD =           0.0000         CONSTANT HEAD =           0.0000
     HEAD DEP BOUNDS =     1901413.7500       HEAD DEP BOUNDS =        8737.5400
      STREAM LEAKAGE =     5036372.0000        STREAM LEAKAGE =       16337.4580
                 MNW =       18459.5371                   MNW =           0.0000
          FARM WELLS =           0.0000            FARM WELLS =           0.0000
    FARM  NET  RECH. =     5291798.0000      FARM  NET  RECH. =       12608.5342
     GHOST-NODE FLUX =     1337661.2500       GHOST-NODE FLUX =        6478.9922

            TOTAL IN =    25709108.0000              TOTAL IN =       57152.3047

          OUT:                                     OUT:
          ----                                     ----
             STORAGE =     3283474.7500               STORAGE =         293.9925
       CONSTANT HEAD =           0.0000         CONSTANT HEAD =           0.0000
     HEAD DEP BOUNDS =     4711796.0000       HEAD DEP BOUNDS =       15921.3223
      STREAM LEAKAGE =      298785.0000        STREAM LEAKAGE =           6.4666
                 MNW =     2717407.5000                   MNW =       14216.1699
          FARM WELLS =     3321949.0000            FARM WELLS =       16000.0000
    FARM  NET  RECH. =     1161056.0000      FARM  NET  RECH. =        2706.6392
     GHOST-NODE FLUX =    10214644.0000       GHOST-NODE FLUX =        8007.7446

           TOTAL OUT =    25709112.0000             TOTAL OUT =       57152.3398

            IN - OUT =          -4.0000              IN - OUT =      -3.5156E-02

 PERCENT DISCREPANCY =          -0.00     PERCENT DISCREPANCY =          -0.00






          TIME SUMMARY AT END OF TIME STEP     2 IN STRESS PERIOD      9
                    SECONDS     MINUTES      HOURS       DAYS        YEARS
                    -----------------------------------------------------------
   TIME STEP LENGTH 1.31414E+06  21902.      365.04      15.210     4.16427E-02
 STRESS PERIOD TIME 2.62829E+06  43805.      730.08      30.420     8.32854E-02
         TOTAL TIME 2.36546E+07 3.94243E+05  6570.7      273.78     0.74957    
1
1
                            STRESS PERIOD NO.     10, LENGTH =   30.42000    
                            -----------------------------------------------

                              NUMBER OF TIME STEPS =     2

                               MULTIPLIER FOR DELT =     1.000

                            INITIAL TIME STEP SIZE =   15.21000    

 REUSING NON-PARAMETER GHB CELLS FROM LAST STRESS PERIOD

     92 GHB CELLS

 REUSING STREAM SEGMENT DATA FROM LAST STRESS PERIOD

 REUSING MNW7  FROM LAST STRESS PERIOD

 Parameter:  WELLS1
 WELL NO. LAYER    ROW    COL  F-WELL ID    FARM ID         QMAX         QMAXRESET       
 ----------------------------------------------------------------------------------------
       1      1      5      6          1          1      5.0000E+03              0
       2      1      8      7          2          1      5.0000E+03              0
       3      1      8      9          3          1      5.0000E+03              0
       4      1      5      9          4          2      3.0000E+03              0
       5      1      6     10          5          2      2.0000E+03              0
       6      1      7     11          6          2      1.0000E+03              0
       7      1     18      3          7          3      2.0000E+03              0
       8      1     21      3          8          3      4.0000E+03              0
       9      1     18     19          9          4      3.0000E+03              0
      10      1     21     19         10          4      5.0000E+03              0
      11      0      6      2        -11          5      5.0000E+03              1
      12      0      8      2        -12          5      5.0000E+03              1
      13      0     10      2        -13          5      5.0000E+03              1
      14      0      3     19        -14          6      1.0000E+04              1
      15      0      6     17        -15          6      6.0000E+03              1

 NUMBER OF ACTIVE FARM WELLS:       15

 THE SINGLE LAYER FMP- OR MNW- WELL IN ROW      8 AND COLUMN      7 IS LOCATED IN AN INACTIVE CELL (IBOUND=0) AND HAS BEEN EXCLUDED FROM THE TOTAL MAXIMUM CAPACITY PER FARM

 THE SINGLE LAYER FMP- OR MNW- WELL IN ROW      8 AND COLUMN      9 IS LOCATED IN AN INACTIVE CELL (IBOUND=0) AND HAS BEEN EXCLUDED FROM THE TOTAL MAXIMUM CAPACITY PER FARM

 THE SINGLE LAYER FMP- OR MNW- WELL IN ROW      6 AND COLUMN     10 IS LOCATED IN AN INACTIVE CELL (IBOUND=0) AND HAS BEEN EXCLUDED FROM THE TOTAL MAXIMUM CAPACITY PER FARM

 THE SINGLE LAYER FMP- OR MNW- WELL IN ROW      7 AND COLUMN     11 IS LOCATED IN AN INACTIVE CELL (IBOUND=0) AND HAS BEEN EXCLUDED FROM THE TOTAL MAXIMUM CAPACITY PER FARM

 FARM-ID  NUMBER OF WELLS PER FARM  TOTAL MAX.CAPACITY PER FARM
       1                         1                    5000.0000
       2                         1                    3000.0000
       3                         2                    6000.0000
       4                         2                    8000.0000
       5                         3                   15000.0000
       6                         2                   16000.0000
       7                         0                       0.0000
       8                         0                       0.0000

 READING LIST ON UNIT   20 WITH FILE NAME: C:\MF_OWHM_Release_Package\MF_OWHM_v1_0\examples\test-run-owhm-lgr\fmp-lgr-nwt\DATA_FMP\OFE.in
 LIST SCALING FACTOR= 0.80000    
 (THE SCALE FACTOR WAS APPLIED TO FIELDS   2 -   7)

 Reading list on unit   30

 Reading list on unit   40

  REF. EVAPOTRANSPIRATION =  3.490000E-03

 READING LIST ON UNIT   50 WITH FILE NAME: C:\MF_OWHM_Release_Package\MF_OWHM_v1_0\examples\test-run-owhm-lgr\fmp-lgr-nwt\DATA_FMP\FTE.in

Transpiratory and Evaporative Fractions of Crop Consumptive Use
    % Transpiration % Evap. for Precip. % Evap. for Irrig.
    1          0.000          1.000          0.500
    2          0.945          0.055          0.055
    3          0.894          0.106          0.106
    4          0.125          0.875          0.875
    5          0.927          0.073          0.000
    6          0.300          0.700          0.000

 READING LIST ON UNIT   60 WITH FILE NAME: C:\MF_OWHM_Release_Package\MF_OWHM_v1_0\examples\test-run-owhm-lgr\fmp-lgr-nwt\DATA_FMP\INEFFSW.in

FRACTIONS OF IN-EFFICIENT LOSSES TO SW-RUNOFF FROM 
     PRECIPITATION:  IRRIGATION:
    1          0.500          0.600
    2          0.400          0.300
    3          0.600          0.500
    4          0.700          0.600
    5          0.500          0.000
    6          0.300          0.000

       PRECIPITATION FLUX =  3.900000E-04

 OPENING FILE WITH FILENAME: ./DATA_FMP/NRDV.in
 AND UNIT NUMBER: -156
 READING SCALE FACTOR LIST ON UNIT   80 ASSOCIATED WITH FILE: C:\MF_OWHM_Release_Package\MF_OWHM_v1_0\examples\test-run-owhm-lgr\fmp-lgr-nwt\DATA_FMP\NRDV.in
 FIELD     SCALE FACTOR
     1       1.0000    
     2       3.0000    
     3       1.0000    
     4       1.0000    

UNRANKED LIST OF NON-ROUTED DELIVERIES TO FARMS [L3]:
TYPE:             1

FARM-ID  VOLUME:
      1   4.500E+04
      2   4.500E+04
      3   6.000E+04
      4   3.000E+04
      5   3.000E+04
      6   6.000E+04
      7   0.000E+00
      8   0.000E+00

FARM-ID  PRIORITY RANK OF NRD-TYPE:
      1           1
      2           1
      3           1
      4           1
      5           1
      6           1
      7           1
      8           1

FARM-ID  USE-FLAG:
         0 = SUFFICIENT USE
         1 = ABSOLUTE USE (RECHARGE SURPLUS BACK INTO CANAL)
         2 = ABSOLUTE USE (INJECT SURPLUS INTO FARM-WELLS)
      1           0
      2           0
      3           0
      4           0
      5           0
      6           0
      7           0
      8           0

LIST OF NON-ROUTED DELIVERIES IN RANKED SEQUENCE [L3/T]:

FARM-ID  RATE:
      1   1.479E+03
      2   1.479E+03
      3   1.972E+03
      4   9.862E+02
      5   9.862E+02
      6   1.972E+03
      7   0.000E+00
      8   0.000E+00

FARM-ID  USE-FLAG:
         0 = SUFFICIENT USE
         1 = ABSOLUTE USE (RECHARGE SURPLUS BACK INTO CANAL)
         2 = ABSOLUTE USE (INJECT SURPLUS INTO FARM-WELLS)
      1           0
      2           0
      3           0
      4           0
      5           0
      6           0
      7           0
      8           0

SURFACE-WATER FARM ALLOTMENT HEIGHT [L]:   0.075
 
 SOLVING FOR HEAD 
                                                   Max.-Head-Change                        Max.-Flux-Residual
  Residual-Control   Outer-Iter.   Inner-Iter.     Column Row Layer    Max.-Head-Change    Column Row Layer    Max.-Flux-Residual            L2-New               L2-Old           Solver-Max-Delh
          0                 1           9            19   21     1       0.2497655543E+01       6    5    1       0.4972949891E+04      0.9117734773E+04      0.1242976028E+00      0.2497655543E+01
          1                 1           0            19   21     1       0.1748358850E+01       9    5    1      -0.9010783589E+04      0.1252029787E+05      0.9117734773E+04      0.2497655543E+01
          0                 2           9            19    3     3       0.4410072107E+01      19   21    1      -0.3899199907E+04      0.7523688455E+04      0.1252029787E+05      0.4410072107E+01
          0                 3           8            19    3     3       0.1070057309E+01      12   10    1      -0.5739718383E+03      0.1164133320E+04      0.7523688455E+04      0.1070057309E+01
          0                 4           7            19    3     3       0.2594506585E+00      19    3    2       0.8101931792E+02      0.1732525715E+03      0.1164133320E+04      0.2594506585E+00
          0                 5           6            19    3     3       0.6286680754E-01      13   16    1       0.4084410875E+02      0.5397905893E+02      0.1732525715E+03      0.6286680754E-01
          0                 6           5            19    3     3       0.1522546188E-01      13   16    1       0.1034242770E+02      0.1343308261E+02      0.5397905893E+02      0.1522546188E-01
          0                 7           4            19    3     3       0.3684646569E-02      13   16    1       0.2288225374E+01      0.3077368954E+01      0.1343308261E+02      0.3684646569E-02
          0                 8           4            19    3     3       0.8912568918E-03      13   16    1       0.4928212172E+00      0.7071868452E+00      0.3077368954E+01      0.8912568918E-03
          0                 9           3            19    3     3       0.2156729426E-03      13   16    1       0.1050281724E+00      0.1636468786E+00      0.7071868452E+00      0.2156729426E-03
          0                10           2            19    3     3       0.5095711041E-04      13   16    1       0.2320897992E-01      0.3960882685E-01      0.1636468786E+00      0.5095711041E-04

    ------------------------------------------------
       NWT REQUIRED           10 OUTER ITERATIONS 
       AND A TOTAL OF         57 INNER ITERATIONS.
    ------------------------------------------------
                                                   Max.-Head-Change                        Max.-Flux-Residual
  Residual-Control   Outer-Iter.   Inner-Iter.     Column Row Layer    Max.-Head-Change    Column Row Layer    Max.-Flux-Residual            L2-New               L2-Old           Solver-Max-Delh
          0                 1           7             9   10     1      -0.4349553668E+00      17   14    1      -0.7202527586E+03      0.1227917648E+04      0.3960882685E-01     -0.4349553668E+00
          0                 2           6             9   10     1       0.3624728555E-01      11   16    1      -0.9421731584E+02      0.1460310139E+03      0.1227917648E+04      0.3624728555E-01
          0                 3           5            11   16     1       0.3048444029E-02      11   16    1       0.8947980888E+01      0.1293577334E+02      0.1460310139E+03      0.3048444029E-02
          0                 4           3            11   16     1       0.1419635061E-03      12   11    1      -0.5027912664E+00      0.7966254707E+00      0.1293577334E+02      0.1419635061E-03
          0                 5           3            12   20     1      -0.3904847836E-04      12   20    1      -0.1296420925E+00      0.1648516118E+00      0.7966254707E+00     -0.3904847836E-04

    ------------------------------------------------
       NWT REQUIRED            5 OUTER ITERATIONS 
       AND A TOTAL OF         24 INNER ITERATIONS.
    ------------------------------------------------
                                                   Max.-Head-Change                        Max.-Flux-Residual
  Residual-Control   Outer-Iter.   Inner-Iter.     Column Row Layer    Max.-Head-Change    Column Row Layer    Max.-Flux-Residual            L2-New               L2-Old           Solver-Max-Delh
          0                 1           7            12   10     1      -0.3318049822E+00      12   10    1      -0.8302824438E+03      0.8914389986E+03      0.1648516118E+00     -0.3318049822E+00
          0                 2           6            12   12     1      -0.1498962959E+00      12   12    1      -0.3372636446E+03      0.3590319723E+03      0.8914389986E+03     -0.1498962959E+00
          0                 3           5            12   12     1      -0.1432322522E-01      12   12    1      -0.3778994070E+02      0.4003388126E+02      0.3590319723E+03     -0.1432322522E-01
          0                 4           4            12   10     1      -0.5211043547E-03      12   10    1      -0.1519698940E+01      0.2200946058E+01      0.4003388126E+02     -0.5211043547E-03
          0                 5           3            12   10     1      -0.9833743035E-04      12   10    1      -0.2867661425E+00      0.4020149674E+00      0.2200946058E+01     -0.9833743035E-04

    ------------------------------------------------
       NWT REQUIRED            5 OUTER ITERATIONS 
       AND A TOTAL OF         25 INNER ITERATIONS.
    ------------------------------------------------
                                                   Max.-Head-Change                        Max.-Flux-Residual
  Residual-Control   Outer-Iter.   Inner-Iter.     Column Row Layer    Max.-Head-Change    Column Row Layer    Max.-Flux-Residual            L2-New               L2-Old           Solver-Max-Delh
          0                 1           6             9    9     1       0.8456470519E-01       7    9    1       0.7035181844E+02      0.1392914268E+03      0.4020149674E+00      0.8456470519E-01
          0                 2           5             9    9     1      -0.7356727469E-02      12   12    1      -0.8534484428E+01      0.1637520180E+02      0.1392914268E+03     -0.7356727469E-02
          0                 3           4             9    9     1      -0.3702508318E-03      12   12    1       0.4395248475E+00      0.9732768462E+00      0.1637520180E+02     -0.3702508318E-03
          0                 4           2             9    9     1      -0.1865386763E-04       2    8    1      -0.3655335121E-01      0.7035482210E-01      0.9732768462E+00     -0.1865386763E-04

    ------------------------------------------------
       NWT REQUIRED            4 OUTER ITERATIONS 
       AND A TOTAL OF         17 INNER ITERATIONS.
    ------------------------------------------------
                                                   Max.-Head-Change                        Max.-Flux-Residual
  Residual-Control   Outer-Iter.   Inner-Iter.     Column Row Layer    Max.-Head-Change    Column Row Layer    Max.-Flux-Residual            L2-New               L2-Old           Solver-Max-Delh
          0                 1           6             6    8     1       0.2280466714E-01       7    9    1       0.2990340484E+02      0.5746695747E+02      0.7035482210E-01      0.2280466714E-01
          0                 2           5             6    8     1      -0.1970254686E-02       7    9    1      -0.2994434606E+01      0.5936099945E+01      0.5746695747E+02     -0.1970254686E-02
          0                 3           3            12   20     1      -0.2363690046E-03      12   20    1      -0.6112014920E+00      0.6851317511E+00      0.5936099945E+01     -0.2363690046E-03
          0                 4           2            12   20     2      -0.1274305109E-04      12   21    1      -0.2476827480E-01      0.4868343208E-01      0.6851317511E+00     -0.1274305109E-04

    ------------------------------------------------
       NWT REQUIRED            4 OUTER ITERATIONS 
       AND A TOTAL OF         16 INNER ITERATIONS.
    ------------------------------------------------
                                                   Max.-Head-Change                        Max.-Flux-Residual
  Residual-Control   Outer-Iter.   Inner-Iter.     Column Row Layer    Max.-Head-Change    Column Row Layer    Max.-Flux-Residual            L2-New               L2-Old           Solver-Max-Delh
          0                 1           5             9    9     1      -0.2065611072E-01       9    9    1      -0.2463222882E+02      0.3725222762E+02      0.4868343208E-01     -0.2065611072E-01
          0                 2           4             9    9     1       0.1787255359E-02       9    9    1       0.2461544263E+01      0.3829052452E+01      0.3725222762E+02      0.1787255359E-02
          0                 3           3            12   20     1      -0.1199175611E-03      12   20    1      -0.3457009440E+00      0.4065736878E+00      0.3829052452E+01     -0.1199175611E-03
          0                 4           2            12   20     1      -0.2073360681E-04      12   20    1      -0.6143791374E-01      0.6445775080E-01      0.4065736878E+00     -0.2073360681E-04

    ------------------------------------------------
       NWT REQUIRED            4 OUTER ITERATIONS 
       AND A TOTAL OF         14 INNER ITERATIONS.
    ------------------------------------------------
                                                   Max.-Head-Change                        Max.-Flux-Residual
  Residual-Control   Outer-Iter.   Inner-Iter.     Column Row Layer    Max.-Head-Change    Column Row Layer    Max.-Flux-Residual            L2-New               L2-Old           Solver-Max-Delh
          0                 1           5             9    9     1      -0.1515856823E-01       9    9    1      -0.1655547198E+02      0.2120871969E+02      0.6445775080E-01     -0.1515856823E-01
          0                 2           4            12   12     1       0.1640292977E-02      12   10    1      -0.4463850792E+01      0.6431884633E+01      0.2120871969E+02      0.1640292977E-02
          0                 3           3            12   12     1      -0.4260840490E-03      12   12    1      -0.1325650727E+01      0.1391946449E+01      0.6431884633E+01     -0.4260840490E-03
          0                 4           3            12   12     1      -0.9194810905E-04      12   12    1      -0.2524549502E+00      0.2562722743E+00      0.1391946449E+01     -0.9194810905E-04

    ------------------------------------------------
       NWT REQUIRED            4 OUTER ITERATIONS 
       AND A TOTAL OF         15 INNER ITERATIONS.
    ------------------------------------------------
                                                   Max.-Head-Change                        Max.-Flux-Residual
  Residual-Control   Outer-Iter.   Inner-Iter.     Column Row Layer    Max.-Head-Change    Column Row Layer    Max.-Flux-Residual            L2-New               L2-Old           Solver-Max-Delh
          0                 1           5             9    9     1      -0.6022783432E-02       9    9    1      -0.6288662476E+01      0.8599120782E+01      0.2562722743E+00     -0.6022783432E-02
          0                 2           4            12   12     1       0.6183580862E-03      12   12    1       0.1736630355E+01      0.1938062529E+01      0.8599120782E+01      0.6183580862E-03
          0                 3           3            12   12     1       0.8703901197E-04      12   12    1       0.2903876628E+00      0.3307181045E+00      0.1938062529E+01      0.8703901197E-04

    ------------------------------------------------
       NWT REQUIRED            3 OUTER ITERATIONS 
       AND A TOTAL OF         12 INNER ITERATIONS.
    ------------------------------------------------
                                                   Max.-Head-Change                        Max.-Flux-Residual
  Residual-Control   Outer-Iter.   Inner-Iter.     Column Row Layer    Max.-Head-Change    Column Row Layer    Max.-Flux-Residual            L2-New               L2-Old           Solver-Max-Delh
          0                 1           4             9    9     3       0.9438025870E-03      12   10    1       0.2175292530E+01      0.2944056843E+01      0.3307181045E+00      0.9438025870E-03
          0                 2           3            12   12     1       0.2917731744E-03      12   12    1       0.7127013581E+00      0.7707653386E+00      0.2944056843E+01      0.2917731744E-03
          0                 3           2            11   12     1       0.1127958989E-04      11   12    1       0.3163154627E-01      0.4648046228E-01      0.7707653386E+00      0.1127958989E-04

    ------------------------------------------------
       NWT REQUIRED            3 OUTER ITERATIONS 
       AND A TOTAL OF          9 INNER ITERATIONS.
    ------------------------------------------------
                                                   Max.-Head-Change                        Max.-Flux-Residual
  Residual-Control   Outer-Iter.   Inner-Iter.     Column Row Layer    Max.-Head-Change    Column Row Layer    Max.-Flux-Residual            L2-New               L2-Old           Solver-Max-Delh
          0                 1           4             9    9     2       0.1389050770E-02       9    9    1       0.1170374612E+01      0.2113342052E+01      0.4648046228E-01      0.1389050770E-02
          0                 2           3             9    9     2      -0.1188560157E-03      12   12    1       0.2317788695E+00      0.3140142172E+00      0.2113342052E+01     -0.1188560157E-03
          0                 3           1             9    9     2      -0.5507419831E-05      11   17    1       0.5808379850E-02      0.1717178626E-01      0.3140142172E+00     -0.5507419831E-05

    ------------------------------------------------
       NWT REQUIRED            3 OUTER ITERATIONS 
       AND A TOTAL OF          8 INNER ITERATIONS.
    ------------------------------------------------
                                                   Max.-Head-Change                        Max.-Flux-Residual
  Residual-Control   Outer-Iter.   Inner-Iter.     Column Row Layer    Max.-Head-Change    Column Row Layer    Max.-Flux-Residual            L2-New               L2-Old           Solver-Max-Delh
          0                 1           4             9    9     2       0.9398454138E-03       9    9    1       0.1016489648E+01      0.1466231480E+01      0.1717178626E-01      0.9398454138E-03
          0                 2           3             9    9     2      -0.8101373082E-04       9    9    1      -0.1014992213E+00      0.1602718099E+00      0.1466231480E+01     -0.8101373082E-04

    ------------------------------------------------
       NWT REQUIRED            2 OUTER ITERATIONS 
       AND A TOTAL OF          7 INNER ITERATIONS.
    ------------------------------------------------

 OUTPUT CONTROL FOR STRESS PERIOD     10   TIME STEP     1
    SAVE BUDGET
 UBDSV1 SAVING "         STORAGE" ON UNIT  70 AT TIME STEP    1, STRESS PERIOD  10
 UBDSV2 SAVING "   CONSTANT HEAD" ON UNIT  70 AT TIME STEP    1, STRESS PERIOD  10
 UBDSV1 SAVING "FLOW RIGHT FACE " ON UNIT  70 AT TIME STEP    1, STRESS PERIOD  10
 UBDSV1 SAVING "FLOW FRONT FACE " ON UNIT  70 AT TIME STEP    1, STRESS PERIOD  10
 UBDSV1 SAVING "FLOW LOWER FACE " ON UNIT  70 AT TIME STEP    1, STRESS PERIOD  10
 UBDSV4 SAVING " HEAD DEP BOUNDS" ON UNIT  70 AT TIME STEP    1, STRESS PERIOD  10
 UBDSV4 SAVING "  STREAM LEAKAGE" ON UNIT  70 AT TIME STEP    1, STRESS PERIOD  10



 UBDSV4 SAVING "             MNW" ON UNIT  70 AT TIME STEP    1, STRESS PERIOD  10
 
 
 
 
 
 
 
 
 UBDSV3 SAVING "FARM  NET  RECH." ON UNIT  70 AT TIME STEP    1, STRESS PERIOD  10
 UBDSV4 SAVING " GHOST-NODE FLUX" ON UNIT  70 AT TIME STEP    1, STRESS PERIOD  10
 UBDSV4 SAVING " GHOST-NODE FLUX" ON UNIT  70 AT TIME STEP    1, STRESS PERIOD  10
 UBDSV4 SAVING " GHOST-NODE FLUX" ON UNIT  70 AT TIME STEP    1, STRESS PERIOD  10
 
 SOLVING FOR HEAD 
                                                   Max.-Head-Change                        Max.-Flux-Residual
  Residual-Control   Outer-Iter.   Inner-Iter.     Column Row Layer    Max.-Head-Change    Column Row Layer    Max.-Flux-Residual            L2-New               L2-Old           Solver-Max-Delh
          0                 1           8            19    3     4       0.1590734882E+01      12   10    1       0.8775024638E+03      0.1809316235E+04      0.1602718099E+00      0.1590734882E+01
          0                 2           7            19    3     4      -0.2351707624E+00       9   10    1      -0.3685523105E+03      0.4499253004E+03      0.1809316235E+04     -0.2351707624E+00
          0                 3           5            19    3     4      -0.2260387078E-01      13   16    1       0.3150622485E+02      0.4245614535E+02      0.4499253004E+03     -0.2260387078E-01
          0                 4           5            19    3     3      -0.4524564401E-02      12   11    1      -0.6598572681E+01      0.1086351005E+02      0.4245614535E+02     -0.4524564401E-02
          0                 5           4            19    3     3      -0.1076547378E-02      12   12    1      -0.6068062112E+00      0.1494495357E+01      0.1086351005E+02     -0.1076547378E-02
          0                 6           3            19    3     3      -0.2592508142E-03       2    8    1       0.1501885328E+00      0.3968111840E+00      0.1494495357E+01     -0.2592508142E-03
          0                 7           2            19    3     3      -0.6133860316E-04       2    8    1       0.4590750544E-01      0.1231077067E+00      0.3968111840E+00     -0.6133860316E-04

    ------------------------------------------------
       NWT REQUIRED            7 OUTER ITERATIONS 
       AND A TOTAL OF         34 INNER ITERATIONS.
    ------------------------------------------------
                                                   Max.-Head-Change                        Max.-Flux-Residual
  Residual-Control   Outer-Iter.   Inner-Iter.     Column Row Layer    Max.-Head-Change    Column Row Layer    Max.-Flux-Residual            L2-New               L2-Old           Solver-Max-Delh
          0                 1           8             9    9     1      -0.5488529563E+00      17   14    1      -0.7206709886E+03      0.1247024744E+04      0.1231077067E+00     -0.5488529563E+00
          0                 2           6             9    9     1       0.4637079185E-01      12   16    1       0.6165218968E+02      0.1096168445E+03      0.1247024744E+04      0.4637079185E-01
          0                 3           5             9    9     1       0.2316446638E-02      12   12    1       0.3659493334E+01      0.6996535039E+01      0.1096168445E+03      0.2316446638E-02
          0                 4           4            12   20     1      -0.3613976691E-03      12   20    1      -0.1190488416E+01      0.1294519108E+01      0.6996535039E+01     -0.3613976691E-03
          0                 5           3            12   20     1      -0.1252517272E-03      12   20    1      -0.4108553249E+00      0.4211837976E+00      0.1294519108E+01     -0.1252517272E-03
          0                 6           3            12   20     1      -0.3635659358E-04      12   20    1      -0.1190099854E+00      0.1226700305E+00      0.4211837976E+00     -0.3635659358E-04

    ------------------------------------------------
       NWT REQUIRED            6 OUTER ITERATIONS 
       AND A TOTAL OF         29 INNER ITERATIONS.
    ------------------------------------------------
                                                   Max.-Head-Change                        Max.-Flux-Residual
  Residual-Control   Outer-Iter.   Inner-Iter.     Column Row Layer    Max.-Head-Change    Column Row Layer    Max.-Flux-Residual            L2-New               L2-Old           Solver-Max-Delh
          0                 1           7            12   10     1      -0.3100821049E+00      12   10    1      -0.7729476953E+03      0.8322195922E+03      0.1226700305E+00     -0.3100821049E+00
          0                 2           6            12   12     1      -0.6848206622E-01      12   12    1      -0.1326701541E+03      0.1848486987E+03      0.8322195922E+03     -0.6848206622E-01
          0                 3           5            12   12     1      -0.1340506666E-01      12   12    1      -0.3628847804E+02      0.3796841711E+02      0.1848486987E+03     -0.1340506666E-01
          0                 4           3            12   10     1      -0.2624759321E-03      12   10    1      -0.9435298094E+00      0.1739210032E+01      0.3796841711E+02     -0.2624759321E-03
          0                 5           3            12   12     1      -0.1099020334E-03      12   12    1      -0.3733905560E+00      0.4404985274E+00      0.1739210032E+01     -0.1099020334E-03
          0                 6           2            12   12     1      -0.4331143556E-04      12   12    1      -0.1537929667E+00      0.1679468092E+00      0.4404985274E+00     -0.4331143556E-04

    ------------------------------------------------
       NWT REQUIRED            6 OUTER ITERATIONS 
       AND A TOTAL OF         26 INNER ITERATIONS.
    ------------------------------------------------
                                                   Max.-Head-Change                        Max.-Flux-Residual
  Residual-Control   Outer-Iter.   Inner-Iter.     Column Row Layer    Max.-Head-Change    Column Row Layer    Max.-Flux-Residual            L2-New               L2-Old           Solver-Max-Delh
          0                 1           6             9    9     1       0.1022724389E+00       9    9    1       0.8848447600E+02      0.1425028416E+03      0.1679468092E+00      0.1022724389E+00
          0                 2           5             9    9     1      -0.8918244360E-02      12   12    1      -0.1335887499E+02      0.1957283994E+02      0.1425028416E+03     -0.8918244360E-02
          0                 3           4             9    9     1      -0.4513039132E-03       9    9    1      -0.4449980762E+00      0.8967244790E+00      0.1957283994E+02     -0.4513039132E-03
          0                 4           2             9    9     1      -0.2289277948E-04       2    8    1      -0.3476178739E-01      0.7757285740E-01      0.8967244790E+00     -0.2289277948E-04

    ------------------------------------------------
       NWT REQUIRED            4 OUTER ITERATIONS 
       AND A TOTAL OF         17 INNER ITERATIONS.
    ------------------------------------------------
                                                   Max.-Head-Change                        Max.-Flux-Residual
  Residual-Control   Outer-Iter.   Inner-Iter.     Column Row Layer    Max.-Head-Change    Column Row Layer    Max.-Flux-Residual            L2-New               L2-Old           Solver-Max-Delh
          0                 1           6             7    9     1       0.2322310936E-01       7    9    1       0.2685440603E+02      0.5188588246E+02      0.7757285740E-01      0.2322310936E-01
          0                 2           5             7    9     1      -0.2003570802E-02       7    9    1      -0.2690035443E+01      0.5373429369E+01      0.5188588246E+02     -0.2003570802E-02
          0                 3           3            12   20     1      -0.1587079252E-03      12   20    1      -0.4595204465E+00      0.5694689358E+00      0.5373429369E+01     -0.1587079252E-03
          0                 4           2            12   20     1      -0.2765934220E-04      12   20    1      -0.8150305710E-01      0.9160589787E-01      0.5694689358E+00     -0.2765934220E-04

    ------------------------------------------------
       NWT REQUIRED            4 OUTER ITERATIONS 
       AND A TOTAL OF         16 INNER ITERATIONS.
    ------------------------------------------------
                                                   Max.-Head-Change                        Max.-Flux-Residual
  Residual-Control   Outer-Iter.   Inner-Iter.     Column Row Layer    Max.-Head-Change    Column Row Layer    Max.-Flux-Residual            L2-New               L2-Old           Solver-Max-Delh
          0                 1           5             9    9     2      -0.1549001513E-01       9    9    1      -0.1727068454E+02      0.3046400475E+02      0.9160589787E-01     -0.1549001513E-01
          0                 2           4            12   12     1       0.1648183813E-02      12   12    1       0.4561666249E+01      0.5490180875E+01      0.3046400475E+02      0.1648183813E-02
          0                 3           3            12   12     1       0.2330042975E-03      12   12    1       0.7696512894E+00      0.9201541379E+00      0.5490180875E+01      0.2330042975E-03
          0                 4           2            12   20     1      -0.1812052355E-04      12   20    1      -0.5475578021E-01      0.6671715782E-01      0.9201541379E+00     -0.1812052355E-04

    ------------------------------------------------
       NWT REQUIRED            4 OUTER ITERATIONS 
       AND A TOTAL OF         14 INNER ITERATIONS.
    ------------------------------------------------
                                                   Max.-Head-Change                        Max.-Flux-Residual
  Residual-Control   Outer-Iter.   Inner-Iter.     Column Row Layer    Max.-Head-Change    Column Row Layer    Max.-Flux-Residual            L2-New               L2-Old           Solver-Max-Delh
          0                 1           5             9    9     1      -0.1388090863E-01       9    9    1      -0.1524755912E+02      0.1985613111E+02      0.6671715782E-01     -0.1388090863E-01
          0                 2           4            12   12     1       0.1506624438E-02      12   12    1       0.3669008719E+01      0.4171888468E+01      0.1985613111E+02      0.1506624438E-02
          0                 3           3             9    9     1       0.6223612384E-04      12   13    1       0.2021216600E+00      0.3564157175E+00      0.4171888468E+01      0.6223612384E-04

    ------------------------------------------------
       NWT REQUIRED            3 OUTER ITERATIONS 
       AND A TOTAL OF         12 INNER ITERATIONS.
    ------------------------------------------------
                                                   Max.-Head-Change                        Max.-Flux-Residual
  Residual-Control   Outer-Iter.   Inner-Iter.     Column Row Layer    Max.-Head-Change    Column Row Layer    Max.-Flux-Residual            L2-New               L2-Old           Solver-Max-Delh
          0                 1           5             9    9     1      -0.6753591247E-02       9    9    1      -0.7142281308E+01      0.9380109976E+01      0.3564157175E+00     -0.6753591247E-02
          0                 2           4            12   12     1       0.8501552414E-03      12   12    1       0.2089270440E+01      0.2289855570E+01      0.9380109976E+01      0.8501552414E-03
          0                 3           2            11   12     1       0.3321753903E-04      11   12    1       0.9260006703E-01      0.1434346885E+00      0.2289855570E+01      0.3321753903E-04

    ------------------------------------------------
       NWT REQUIRED            3 OUTER ITERATIONS 
       AND A TOTAL OF         11 INNER ITERATIONS.
    ------------------------------------------------
                                                   Max.-Head-Change                        Max.-Flux-Residual
  Residual-Control   Outer-Iter.   Inner-Iter.     Column Row Layer    Max.-Head-Change    Column Row Layer    Max.-Flux-Residual            L2-New               L2-Old           Solver-Max-Delh
          0                 1           4             9    9     1      -0.1520743102E-02      12   10    1       0.2473099165E+01      0.3306937440E+01      0.1434346885E+00     -0.1520743102E-02
          0                 2           3            12   12     1       0.3841204956E-03      12   12    1       0.9527637709E+00      0.1008208408E+01      0.3306937440E+01      0.3841204956E-03
          0                 3           2             9    9     1       0.7417278738E-05      10   13    1       0.1393489214E-01      0.3418342654E-01      0.1008208408E+01      0.7417278738E-05

    ------------------------------------------------
       NWT REQUIRED            3 OUTER ITERATIONS 
       AND A TOTAL OF          9 INNER ITERATIONS.
    ------------------------------------------------
                                                   Max.-Head-Change                        Max.-Flux-Residual
  Residual-Control   Outer-Iter.   Inner-Iter.     Column Row Layer    Max.-Head-Change    Column Row Layer    Max.-Flux-Residual            L2-New               L2-Old           Solver-Max-Delh
          0                 1           4             9    9     2       0.1019700001E-02      12   10    1       0.9741914277E+00      0.1771862659E+01      0.3418342654E-01      0.1019700001E-02
          0                 2           3            12   12     1       0.1433283883E-03      12   12    1       0.3596042501E+00      0.4011261775E+00      0.1771862659E+01      0.1433283883E-03
          0                 3           1             9    9     2      -0.3980396713E-05      13   13    1      -0.5828998517E-02      0.1768267513E-01      0.4011261775E+00     -0.3980396713E-05

    ------------------------------------------------
       NWT REQUIRED            3 OUTER ITERATIONS 
       AND A TOTAL OF          8 INNER ITERATIONS.
    ------------------------------------------------
                                                   Max.-Head-Change                        Max.-Flux-Residual
  Residual-Control   Outer-Iter.   Inner-Iter.     Column Row Layer    Max.-Head-Change    Column Row Layer    Max.-Flux-Residual            L2-New               L2-Old           Solver-Max-Delh
          0                 1           4             9    9     2       0.9192154483E-03       9    9    1       0.8643823638E+00      0.1300942805E+01      0.1768267513E-01      0.9192154483E-03
          0                 2           3             9    9     2      -0.7862017631E-04      12   12    1       0.1193695890E+00      0.1770836586E+00      0.1300942805E+01     -0.7862017631E-04

    ------------------------------------------------
       NWT REQUIRED            2 OUTER ITERATIONS 
       AND A TOTAL OF          7 INNER ITERATIONS.
    ------------------------------------------------

 OUTPUT CONTROL FOR STRESS PERIOD     10   TIME STEP     2
    SAVE HEAD FOR ALL LAYERS
    SAVE BUDGET
 UBDSV1 SAVING "         STORAGE" ON UNIT  70 AT TIME STEP    2, STRESS PERIOD  10
 UBDSV2 SAVING "   CONSTANT HEAD" ON UNIT  70 AT TIME STEP    2, STRESS PERIOD  10
 UBDSV1 SAVING "FLOW RIGHT FACE " ON UNIT  70 AT TIME STEP    2, STRESS PERIOD  10
 UBDSV1 SAVING "FLOW FRONT FACE " ON UNIT  70 AT TIME STEP    2, STRESS PERIOD  10
 UBDSV1 SAVING "FLOW LOWER FACE " ON UNIT  70 AT TIME STEP    2, STRESS PERIOD  10
 UBDSV4 SAVING " HEAD DEP BOUNDS" ON UNIT  70 AT TIME STEP    2, STRESS PERIOD  10
 UBDSV4 SAVING "  STREAM LEAKAGE" ON UNIT  70 AT TIME STEP    2, STRESS PERIOD  10



 UBDSV4 SAVING "             MNW" ON UNIT  70 AT TIME STEP    2, STRESS PERIOD  10
 
 
 
 
 
 
 
 
 UBDSV3 SAVING "FARM  NET  RECH." ON UNIT  70 AT TIME STEP    2, STRESS PERIOD  10
 UBDSV4 SAVING " GHOST-NODE FLUX" ON UNIT  70 AT TIME STEP    2, STRESS PERIOD  10
 UBDSV4 SAVING " GHOST-NODE FLUX" ON UNIT  70 AT TIME STEP    2, STRESS PERIOD  10
 UBDSV4 SAVING " GHOST-NODE FLUX" ON UNIT  70 AT TIME STEP    2, STRESS PERIOD  10

 HEAD WILL BE SAVED ON UNIT   22 AT END OF TIME STEP     2, STRESS PERIOD     10
1
  VOLUMETRIC BUDGET FOR ENTIRE MODEL AT END OF TIME STEP    2 IN STRESS PERIOD     10
  ------------------------------------------------------------------------------

     CUMULATIVE VOLUMES      L**3       RATES FOR THIS TIME STEP      L**3/T
     ------------------                 ------------------------

           IN:                                      IN:
           ---                                      ---
             STORAGE =    12327400.0000               STORAGE =        6014.3721
       CONSTANT HEAD =           0.0000         CONSTANT HEAD =           0.0000
     HEAD DEP BOUNDS =     2169927.0000       HEAD DEP BOUNDS =        8858.1963
      STREAM LEAKAGE =     5587857.0000        STREAM LEAKAGE =       18028.7168
                 MNW =       19231.5430                   MNW =          10.4717
          FARM WELLS =           0.0000            FARM WELLS =           0.0000
    FARM  NET  RECH. =     5709153.0000      FARM  NET  RECH. =       13730.0791
     GHOST-NODE FLUX =     1547191.2500       GHOST-NODE FLUX =        7025.7715

            TOTAL IN =    27360760.0000              TOTAL IN =       53667.6094

          OUT:                                     OUT:
          ----                                     ----
             STORAGE =     3400047.0000               STORAGE =        3142.8948
       CONSTANT HEAD =           0.0000         CONSTANT HEAD =           0.0000
     HEAD DEP BOUNDS =     5196199.0000       HEAD DEP BOUNDS =       15925.2930
      STREAM LEAKAGE =      300759.5938        STREAM LEAKAGE =          92.0532
                 MNW =     3009602.0000                   MNW =        9590.4287
          FARM WELLS =     3808669.0000            FARM WELLS =       16000.0000
    FARM  NET  RECH. =     1208731.8750      FARM  NET  RECH. =        1678.6353
     GHOST-NODE FLUX =    10436757.0000       GHOST-NODE FLUX =        7238.3096

           TOTAL OUT =    27360764.0000             TOTAL OUT =       53667.6133

            IN - OUT =          -4.0000              IN - OUT =      -3.9062E-03

 PERCENT DISCREPANCY =          -0.00     PERCENT DISCREPANCY =          -0.00






          TIME SUMMARY AT END OF TIME STEP     2 IN STRESS PERIOD     10
                    SECONDS     MINUTES      HOURS       DAYS        YEARS
                    -----------------------------------------------------------
   TIME STEP LENGTH 1.31414E+06  21902.      365.04      15.210     4.16427E-02
 STRESS PERIOD TIME 2.62829E+06  43805.      730.08      30.420     8.32854E-02
         TOTAL TIME 2.62829E+07 4.38048E+05  7300.8      304.20     0.83285    
1
1
                            STRESS PERIOD NO.     11, LENGTH =   30.42000    
                            -----------------------------------------------

                              NUMBER OF TIME STEPS =     2

                               MULTIPLIER FOR DELT =     1.000

                            INITIAL TIME STEP SIZE =   15.21000    

 REUSING NON-PARAMETER GHB CELLS FROM LAST STRESS PERIOD

     92 GHB CELLS

 REUSING STREAM SEGMENT DATA FROM LAST STRESS PERIOD

 REUSING MNW7  FROM LAST STRESS PERIOD

 Parameter:  WELLS1
 WELL NO. LAYER    ROW    COL  F-WELL ID    FARM ID         QMAX         QMAXRESET       
 ----------------------------------------------------------------------------------------
       1      1      5      6          1          1      5.0000E+03              0
       2      1      8      7          2          1      5.0000E+03              0
       3      1      8      9          3          1      5.0000E+03              0
       4      1      5      9          4          2      3.0000E+03              0
       5      1      6     10          5          2      2.0000E+03              0
       6      1      7     11          6          2      1.0000E+03              0
       7      1     18      3          7          3      2.0000E+03              0
       8      1     21      3          8          3      4.0000E+03              0
       9      1     18     19          9          4      3.0000E+03              0
      10      1     21     19         10          4      5.0000E+03              0
      11      0      6      2        -11          5      5.0000E+03              1
      12      0      8      2        -12          5      5.0000E+03              1
      13      0     10      2        -13          5      5.0000E+03              1
      14      0      3     19        -14          6      1.0000E+04              1
      15      0      6     17        -15          6      6.0000E+03              1

 NUMBER OF ACTIVE FARM WELLS:       15

 THE SINGLE LAYER FMP- OR MNW- WELL IN ROW      8 AND COLUMN      7 IS LOCATED IN AN INACTIVE CELL (IBOUND=0) AND HAS BEEN EXCLUDED FROM THE TOTAL MAXIMUM CAPACITY PER FARM

 THE SINGLE LAYER FMP- OR MNW- WELL IN ROW      8 AND COLUMN      9 IS LOCATED IN AN INACTIVE CELL (IBOUND=0) AND HAS BEEN EXCLUDED FROM THE TOTAL MAXIMUM CAPACITY PER FARM

 THE SINGLE LAYER FMP- OR MNW- WELL IN ROW      6 AND COLUMN     10 IS LOCATED IN AN INACTIVE CELL (IBOUND=0) AND HAS BEEN EXCLUDED FROM THE TOTAL MAXIMUM CAPACITY PER FARM

 THE SINGLE LAYER FMP- OR MNW- WELL IN ROW      7 AND COLUMN     11 IS LOCATED IN AN INACTIVE CELL (IBOUND=0) AND HAS BEEN EXCLUDED FROM THE TOTAL MAXIMUM CAPACITY PER FARM

 FARM-ID  NUMBER OF WELLS PER FARM  TOTAL MAX.CAPACITY PER FARM
       1                         1                    5000.0000
       2                         1                    3000.0000
       3                         2                    6000.0000
       4                         2                    8000.0000
       5                         3                   15000.0000
       6                         2                   16000.0000
       7                         0                       0.0000
       8                         0                       0.0000

 READING LIST ON UNIT   20 WITH FILE NAME: C:\MF_OWHM_Release_Package\MF_OWHM_v1_0\examples\test-run-owhm-lgr\fmp-lgr-nwt\DATA_FMP\OFE.in
 LIST SCALING FACTOR= 0.70000    
 (THE SCALE FACTOR WAS APPLIED TO FIELDS   2 -   7)

 Reading list on unit   30

 Reading list on unit   40

  REF. EVAPOTRANSPIRATION =  1.540000E-03

 READING LIST ON UNIT   50 WITH FILE NAME: C:\MF_OWHM_Release_Package\MF_OWHM_v1_0\examples\test-run-owhm-lgr\fmp-lgr-nwt\DATA_FMP\FTE.in

Transpiratory and Evaporative Fractions of Crop Consumptive Use
    % Transpiration % Evap. for Precip. % Evap. for Irrig.
    1          0.000          1.000          0.500
    2          0.000          1.000          0.350
    3          0.954          0.046          0.046
    4          0.125          0.875          0.875
    5          0.927          0.073          0.000
    6          0.200          0.800          0.000

 READING LIST ON UNIT   60 WITH FILE NAME: C:\MF_OWHM_Release_Package\MF_OWHM_v1_0\examples\test-run-owhm-lgr\fmp-lgr-nwt\DATA_FMP\INEFFSW.in

FRACTIONS OF IN-EFFICIENT LOSSES TO SW-RUNOFF FROM 
     PRECIPITATION:  IRRIGATION:
    1          0.500          0.600
    2          0.400          0.300
    3          0.600          0.500
    4          0.700          0.600
    5          0.500          0.000
    6          0.300          0.000

       PRECIPITATION FLUX =  1.490000E-03

 OPENING FILE WITH FILENAME: ./DATA_FMP/NRDV.in
 AND UNIT NUMBER: -157
 READING SCALE FACTOR LIST ON UNIT   80 ASSOCIATED WITH FILE: C:\MF_OWHM_Release_Package\MF_OWHM_v1_0\examples\test-run-owhm-lgr\fmp-lgr-nwt\DATA_FMP\NRDV.in
 FIELD     SCALE FACTOR
     1       1.0000    
     2       2.0000    
     3       1.0000    
     4       1.0000    

UNRANKED LIST OF NON-ROUTED DELIVERIES TO FARMS [L3]:
TYPE:             1

FARM-ID  VOLUME:
      1   3.000E+04
      2   3.000E+04
      3   4.000E+04
      4   2.000E+04
      5   2.000E+04
      6   4.000E+04
      7   0.000E+00
      8   0.000E+00

FARM-ID  PRIORITY RANK OF NRD-TYPE:
      1           1
      2           1
      3           1
      4           1
      5           1
      6           1
      7           1
      8           1

FARM-ID  USE-FLAG:
         0 = SUFFICIENT USE
         1 = ABSOLUTE USE (RECHARGE SURPLUS BACK INTO CANAL)
         2 = ABSOLUTE USE (INJECT SURPLUS INTO FARM-WELLS)
      1           0
      2           0
      3           0
      4           0
      5           0
      6           0
      7           0
      8           0

LIST OF NON-ROUTED DELIVERIES IN RANKED SEQUENCE [L3/T]:

FARM-ID  RATE:
      1   9.862E+02
      2   9.862E+02
      3   1.315E+03
      4   6.575E+02
      5   6.575E+02
      6   1.315E+03
      7   0.000E+00
      8   0.000E+00

FARM-ID  USE-FLAG:
         0 = SUFFICIENT USE
         1 = ABSOLUTE USE (RECHARGE SURPLUS BACK INTO CANAL)
         2 = ABSOLUTE USE (INJECT SURPLUS INTO FARM-WELLS)
      1           0
      2           0
      3           0
      4           0
      5           0
      6           0
      7           0
      8           0

SURFACE-WATER FARM ALLOTMENT HEIGHT [L]:   0.000
 
 SOLVING FOR HEAD 
                                                   Max.-Head-Change                        Max.-Flux-Residual
  Residual-Control   Outer-Iter.   Inner-Iter.     Column Row Layer    Max.-Head-Change    Column Row Layer    Max.-Flux-Residual            L2-New               L2-Old           Solver-Max-Delh
          0                 1           8            19   21     1       0.2565974676E+01       6    5    1       0.4993412318E+04      0.8864954448E+04      0.1770836586E+00      0.2565974676E+01
          0                 2           8             9   10     1       0.1464772035E+01       2   10    1       0.2681433216E+04      0.6353761294E+04      0.8864954448E+04      0.1464772035E+01
          0                 3           8            14   16     1       0.4588324029E+00      11   16    1      -0.1190193451E+04      0.2435803539E+04      0.6353761294E+04      0.4588324029E+00
          0                 4           7            15   16     1       0.1698515747E+00      15   16    1       0.5572859086E+03      0.8045321381E+03      0.2435803539E+04      0.1698515747E+00
          0                 5           6             2    8     3       0.3976846029E-01       2    8    1       0.8573846348E+02      0.1598931548E+03      0.8045321381E+03      0.3976846029E-01
          0                 6           6             2    8     3       0.1215193738E-01      15   16    1      -0.3470863389E+02      0.5506228048E+02      0.1598931548E+03      0.1215193738E-01
          0                 7           5            15   16     1      -0.4619524386E-02      15   16    1      -0.1552119024E+02      0.2037872386E+02      0.5506228048E+02     -0.4619524386E-02
          0                 8           4            15   16     1      -0.1677053537E-02      15   16    1      -0.5755075510E+01      0.7195722903E+01      0.2037872386E+02     -0.1677053537E-02
          0                 9           4            15   16     1      -0.5708849725E-03      15   16    1      -0.1980591830E+01      0.2454349370E+01      0.7195722903E+01     -0.5708849725E-03
          0                10           3            15   16     1      -0.1874949154E-03      15   16    1      -0.6526982301E+00      0.8160662531E+00      0.2454349370E+01     -0.1874949154E-03
          0                11           3            15   16     1      -0.6080211806E-04      15   16    1      -0.2113113353E+00      0.2694474131E+00      0.8160662531E+00     -0.6080211806E-04

    ------------------------------------------------
       NWT REQUIRED           11 OUTER ITERATIONS 
       AND A TOTAL OF         62 INNER ITERATIONS.
    ------------------------------------------------
                                                   Max.-Head-Change                        Max.-Flux-Residual
  Residual-Control   Outer-Iter.   Inner-Iter.     Column Row Layer    Max.-Head-Change    Column Row Layer    Max.-Flux-Residual            L2-New               L2-Old           Solver-Max-Delh
          0                 1           7             6    5     1      -0.5498202924E+00       6    5    1      -0.1126694805E+04      0.1601845267E+04      0.2694474131E+00     -0.5498202924E+00
          0                 2           6             6    5     1       0.4668630254E-01       6    5    1       0.1093972030E+03      0.1879984990E+03      0.1601845267E+04      0.4668630254E-01
          0                 3           5             6    5     1       0.2333952723E-02       6    5    1       0.5448793399E+01      0.8154473024E+01      0.1879984990E+03      0.2333952723E-02
          0                 4           3            15   16     1      -0.2701992288E-03      15   16    1      -0.8710048334E+00      0.1202742849E+01      0.8154473024E+01     -0.2701992288E-03
          0                 5           2            15   16     1      -0.5750025396E-04      15   16    1      -0.2070376332E+00      0.2327116906E+00      0.1202742849E+01     -0.5750025396E-04

    ------------------------------------------------
       NWT REQUIRED            5 OUTER ITERATIONS 
       AND A TOTAL OF         23 INNER ITERATIONS.
    ------------------------------------------------
                                                   Max.-Head-Change                        Max.-Flux-Residual
  Residual-Control   Outer-Iter.   Inner-Iter.     Column Row Layer    Max.-Head-Change    Column Row Layer    Max.-Flux-Residual            L2-New               L2-Old           Solver-Max-Delh
          0                 1           7             9    5     1      -0.1149550415E+00       9    5    1      -0.1629354978E+03      0.3508870982E+03      0.2327116906E+00     -0.1149550415E+00
          0                 2           5             9    5     1       0.9871016355E-02      14   16    1      -0.2455496270E+02      0.4276126606E+02      0.3508870982E+03      0.9871016355E-02
          0                 3           4             9    5     1       0.4926777078E-03       9    5    1       0.8044445443E+00      0.2095038655E+01      0.4276126606E+02      0.4926777078E-03
          0                 4           3            14   16     1      -0.3481156611E-04      14   16    1      -0.1144282707E+00      0.1750221708E+00      0.2095038655E+01     -0.3481156611E-04

    ------------------------------------------------
       NWT REQUIRED            4 OUTER ITERATIONS 
       AND A TOTAL OF         19 INNER ITERATIONS.
    ------------------------------------------------
                                                   Max.-Head-Change                        Max.-Flux-Residual
  Residual-Control   Outer-Iter.   Inner-Iter.     Column Row Layer    Max.-Head-Change    Column Row Layer    Max.-Flux-Residual            L2-New               L2-Old           Solver-Max-Delh
          0                 1           6             9    5     1      -0.6950452520E-01       9    5    1      -0.1028551988E+03      0.1651716134E+03      0.1750221708E+00     -0.6950452520E-01
          0                 2           5             9    5     1       0.5981889418E-02      14   16    1      -0.1171048946E+02      0.2021303442E+02      0.1651716134E+03      0.5981889418E-02
          0                 3           4             9    5     1       0.2989670213E-03       9    5    1       0.5105062323E+00      0.1008650742E+01      0.2021303442E+02      0.2989670213E-03
          0                 4           2            14   16     1      -0.2876745006E-04      14   16    1      -0.7154634380E-01      0.9724566707E-01      0.1008650742E+01     -0.2876745006E-04

    ------------------------------------------------
       NWT REQUIRED            4 OUTER ITERATIONS 
       AND A TOTAL OF         17 INNER ITERATIONS.
    ------------------------------------------------
                                                   Max.-Head-Change                        Max.-Flux-Residual
  Residual-Control   Outer-Iter.   Inner-Iter.     Column Row Layer    Max.-Head-Change    Column Row Layer    Max.-Flux-Residual            L2-New               L2-Old           Solver-Max-Delh
          0                 1           6             9    5     1      -0.3400634004E-01       9    5    1      -0.5422608221E+02      0.7612570825E+02      0.9724566707E-01     -0.3400634004E-01
          0                 2           5             9    5     1       0.2931831842E-02       9    5    1       0.5406293276E+01      0.8461002266E+01      0.7612570825E+02      0.2931831842E-02
          0                 3           3             9    5     1       0.1466963789E-03       9    5    1       0.2701636832E+00      0.4777005182E+00      0.8461002266E+01      0.1466963789E-03
          0                 4           2            14   16     1      -0.7685460805E-05      14   16    1      -0.1952015917E-01      0.3367308766E-01      0.4777005182E+00     -0.7685460805E-05

    ------------------------------------------------
       NWT REQUIRED            4 OUTER ITERATIONS 
       AND A TOTAL OF         16 INNER ITERATIONS.
    ------------------------------------------------
                                                   Max.-Head-Change                        Max.-Flux-Residual
  Residual-Control   Outer-Iter.   Inner-Iter.     Column Row Layer    Max.-Head-Change    Column Row Layer    Max.-Flux-Residual            L2-New               L2-Old           Solver-Max-Delh
          0                 1           6             9    9     1      -0.1701766086E-01       9    5    1      -0.2487549414E+02      0.3472065349E+02      0.3367308766E-01     -0.1701766086E-01
          0                 2           4             9    9     1       0.1468671499E-02       9    5    1       0.2485141453E+01      0.3478425025E+01      0.3472065349E+02      0.1468671499E-02
          0                 3           3             9    9     1       0.7369649156E-04       9    5    1       0.1239116378E+00      0.1776768189E+00      0.3478425025E+01      0.7369649156E-04

    ------------------------------------------------
       NWT REQUIRED            3 OUTER ITERATIONS 
       AND A TOTAL OF         13 INNER ITERATIONS.
    ------------------------------------------------
                                                   Max.-Head-Change                        Max.-Flux-Residual
  Residual-Control   Outer-Iter.   Inner-Iter.     Column Row Layer    Max.-Head-Change    Column Row Layer    Max.-Flux-Residual            L2-New               L2-Old           Solver-Max-Delh
          0                 1           5             9    9     1      -0.7086049340E-02       9    5    1      -0.9896516269E+01      0.1564428022E+02      0.1776768189E+00     -0.7086049340E-02
          0                 2           4             9    9     1       0.6117969689E-03       9    5    1       0.9891992581E+00      0.1703460744E+01      0.1564428022E+02      0.6117969689E-03
          0                 3           2             9    9     1       0.3055980063E-04       9    5    1       0.4960971253E-01      0.8133363921E-01      0.1703460744E+01      0.3055980063E-04

    ------------------------------------------------
       NWT REQUIRED            3 OUTER ITERATIONS 
       AND A TOTAL OF         11 INNER ITERATIONS.
    ------------------------------------------------
                                                   Max.-Head-Change                        Max.-Flux-Residual
  Residual-Control   Outer-Iter.   Inner-Iter.     Column Row Layer    Max.-Head-Change    Column Row Layer    Max.-Flux-Residual            L2-New               L2-Old           Solver-Max-Delh
          0                 1           5             7    9     1      -0.2765568071E-02       7    9    1      -0.3558369320E+01      0.7907576999E+01      0.8133363921E-01     -0.2765568071E-02
          0                 2           4             7    9     1       0.2386726661E-03      14   16    1       0.5864625954E+00      0.9842510080E+00      0.7907576999E+01      0.2386726661E-03
          0                 3           2             7    9     1       0.1211230392E-04       7    9    1       0.1822143985E-01      0.4358384378E-01      0.9842510080E+00      0.1211230392E-04

    ------------------------------------------------
       NWT REQUIRED            3 OUTER ITERATIONS 
       AND A TOTAL OF         11 INNER ITERATIONS.
    ------------------------------------------------
                                                   Max.-Head-Change                        Max.-Flux-Residual
  Residual-Control   Outer-Iter.   Inner-Iter.     Column Row Layer    Max.-Head-Change    Column Row Layer    Max.-Flux-Residual            L2-New               L2-Old           Solver-Max-Delh
          0                 1           4             7    9     1      -0.1474854072E-02       7    9    1      -0.2414451725E+01      0.4720901425E+01      0.4358384378E-01     -0.1474854072E-02
          0                 2           3             7    9     1       0.1270883755E-03      14   16    1       0.3027185934E+00      0.5607767997E+00      0.4720901425E+01      0.1270883755E-03
          0                 3           2             7    9     1       0.6518868424E-05       7    9    1       0.1246042625E-01      0.2738615865E-01      0.5607767997E+00      0.6518868424E-05

    ------------------------------------------------
       NWT REQUIRED            3 OUTER ITERATIONS 
       AND A TOTAL OF          9 INNER ITERATIONS.
    ------------------------------------------------
                                                   Max.-Head-Change                        Max.-Flux-Residual
  Residual-Control   Outer-Iter.   Inner-Iter.     Column Row Layer    Max.-Head-Change    Column Row Layer    Max.-Flux-Residual            L2-New               L2-Old           Solver-Max-Delh
          0                 1           4             9    9     2       0.1078419216E-02       9   10    1       0.1460605778E+01      0.2766109170E+01      0.2738615865E-01      0.1078419216E-02
          0                 2           3             9    9     2      -0.9337302830E-04       9   10    1      -0.1463448042E+00      0.2970253190E+00      0.2766109170E+01     -0.9337302830E-04

    ------------------------------------------------
       NWT REQUIRED            2 OUTER ITERATIONS 
       AND A TOTAL OF          7 INNER ITERATIONS.
    ------------------------------------------------
                                                   Max.-Head-Change                        Max.-Flux-Residual
  Residual-Control   Outer-Iter.   Inner-Iter.     Column Row Layer    Max.-Head-Change    Column Row Layer    Max.-Flux-Residual            L2-New               L2-Old           Solver-Max-Delh
          0                 1           4             9   10     1       0.5343560281E-03       9   10    1       0.7905269512E+00      0.1434546059E+01      0.2970253190E+00      0.5343560281E-03
          0                 2           2             9   10     1      -0.4600963606E-04       9   10    1      -0.7909504802E-01      0.1444945049E+00      0.1434546059E+01     -0.4600963606E-04

    ------------------------------------------------
       NWT REQUIRED            2 OUTER ITERATIONS 
       AND A TOTAL OF          6 INNER ITERATIONS.
    ------------------------------------------------

 OUTPUT CONTROL FOR STRESS PERIOD     11   TIME STEP     1
    SAVE BUDGET
 UBDSV1 SAVING "         STORAGE" ON UNIT  70 AT TIME STEP    1, STRESS PERIOD  11
 UBDSV2 SAVING "   CONSTANT HEAD" ON UNIT  70 AT TIME STEP    1, STRESS PERIOD  11
 UBDSV1 SAVING "FLOW RIGHT FACE " ON UNIT  70 AT TIME STEP    1, STRESS PERIOD  11
 UBDSV1 SAVING "FLOW FRONT FACE " ON UNIT  70 AT TIME STEP    1, STRESS PERIOD  11
 UBDSV1 SAVING "FLOW LOWER FACE " ON UNIT  70 AT TIME STEP    1, STRESS PERIOD  11
 UBDSV4 SAVING " HEAD DEP BOUNDS" ON UNIT  70 AT TIME STEP    1, STRESS PERIOD  11
 UBDSV4 SAVING "  STREAM LEAKAGE" ON UNIT  70 AT TIME STEP    1, STRESS PERIOD  11



 UBDSV4 SAVING "             MNW" ON UNIT  70 AT TIME STEP    1, STRESS PERIOD  11
 
 
 
 
 
 
 
 
 UBDSV3 SAVING "FARM  NET  RECH." ON UNIT  70 AT TIME STEP    1, STRESS PERIOD  11
 UBDSV4 SAVING " GHOST-NODE FLUX" ON UNIT  70 AT TIME STEP    1, STRESS PERIOD  11
 UBDSV4 SAVING " GHOST-NODE FLUX" ON UNIT  70 AT TIME STEP    1, STRESS PERIOD  11
 UBDSV4 SAVING " GHOST-NODE FLUX" ON UNIT  70 AT TIME STEP    1, STRESS PERIOD  11
 
 SOLVING FOR HEAD 
                                                   Max.-Head-Change                        Max.-Flux-Residual
  Residual-Control   Outer-Iter.   Inner-Iter.     Column Row Layer    Max.-Head-Change    Column Row Layer    Max.-Flux-Residual            L2-New               L2-Old           Solver-Max-Delh
          0                 1           8             2    8     4       0.9178995033E+00      19   21    1       0.7658963283E+03      0.2603894853E+04      0.1444945049E+00      0.9178995033E+00
          0                 2           7            15   16     1       0.3099599373E+00      15   16    1       0.8932533529E+03      0.1115254806E+04      0.2603894853E+04      0.3099599373E+00
          0                 3           6            15   16     1      -0.7163732709E-01      15   16    1      -0.2093517330E+03      0.2195055707E+03      0.1115254806E+04     -0.7163732709E-01
          0                 4           5            15   16     1      -0.1293906646E-01      15   16    1      -0.3672615000E+02      0.4196636306E+02      0.2195055707E+03     -0.1293906646E-01
          0                 5           5            15   16     1      -0.2629243482E-02      15   16    1      -0.7399430414E+01      0.1025992477E+02      0.4196636306E+02     -0.2629243482E-02
          0                 6           4            15   16     1      -0.5485137619E-03      15   16    1      -0.1541431313E+01      0.2909159907E+01      0.1025992477E+02     -0.5485137619E-03
          0                 7           3             2    8     3      -0.1630397295E-03      19   18    1      -0.3854063840E+00      0.8755121070E+00      0.2909159907E+01     -0.1630397295E-03
          0                 8           3             2    8     3      -0.4996091464E-04      19   18    1      -0.1264810165E+00      0.2670479458E+00      0.8755121070E+00     -0.4996091464E-04

    ------------------------------------------------
       NWT REQUIRED            8 OUTER ITERATIONS 
       AND A TOTAL OF         41 INNER ITERATIONS.
    ------------------------------------------------
                                                   Max.-Head-Change                        Max.-Flux-Residual
  Residual-Control   Outer-Iter.   Inner-Iter.     Column Row Layer    Max.-Head-Change    Column Row Layer    Max.-Flux-Residual            L2-New               L2-Old           Solver-Max-Delh
          0                 1           7            15   16     1      -0.2656771580E+00      12   10    1      -0.6552286655E+03      0.9880759090E+03      0.2670479458E+00     -0.2656771580E+00
          0                 2           6            15   16     1      -0.2683874689E-01      12   10    1       0.6202395615E+02      0.1022733142E+03      0.9880759090E+03     -0.2683874689E-01
          0                 3           4            14   16     1      -0.1306618415E-02      15   16    1       0.4955243679E+01      0.7929929878E+01      0.1022733142E+03     -0.1306618415E-02
          0                 4           3            14   16     1      -0.1881877322E-03      14   16    1      -0.4604848818E+00      0.5440475191E+00      0.7929929878E+01     -0.1881877322E-03
          0                 5           2            15   16     1      -0.1090518288E-04      15   15    1      -0.2001911995E-01      0.5250906061E-01      0.5440475191E+00     -0.1090518288E-04

    ------------------------------------------------
       NWT REQUIRED            5 OUTER ITERATIONS 
       AND A TOTAL OF         22 INNER ITERATIONS.
    ------------------------------------------------
                                                   Max.-Head-Change                        Max.-Flux-Residual
  Residual-Control   Outer-Iter.   Inner-Iter.     Column Row Layer    Max.-Head-Change    Column Row Layer    Max.-Flux-Residual            L2-New               L2-Old           Solver-Max-Delh
          0                 1           6             9   10     1      -0.6376202022E-01       9   10    1      -0.9798195462E+02      0.1279560538E+03      0.5250906061E-01     -0.6376202022E-01
          0                 2           5             9   10     1       0.5489670464E-02       9   10    1       0.9752840278E+01      0.1579466228E+02      0.1279560538E+03      0.5489670464E-02
          0                 3           3             9   10     1       0.2746885886E-03       9   10    1       0.4872625198E+00      0.7537140077E+00      0.1579466228E+02      0.2746885886E-03
          0                 4           2            14   16     1      -0.2026535690E-04      14   16    1      -0.5325565935E-01      0.8033485473E-01      0.7537140077E+00     -0.2026535690E-04

    ------------------------------------------------
       NWT REQUIRED            4 OUTER ITERATIONS 
       AND A TOTAL OF         16 INNER ITERATIONS.
    ------------------------------------------------
                                                   Max.-Head-Change                        Max.-Flux-Residual
  Residual-Control   Outer-Iter.   Inner-Iter.     Column Row Layer    Max.-Head-Change    Column Row Layer    Max.-Flux-Residual            L2-New               L2-Old           Solver-Max-Delh
          0                 1           6             9   10     1      -0.3334320934E-01       9   10    1      -0.4460877439E+02      0.6834596185E+02      0.8033485473E-01     -0.3334320934E-01
          0                 2           5             9   10     1       0.2875333555E-02      14   16    1      -0.4533488820E+01      0.8196388614E+01      0.6834596185E+02      0.2875333555E-02
          0                 3           3             9   10     1       0.1438188811E-03       9   10    1       0.2222307856E+00      0.3967901837E+00      0.8196388614E+01      0.1438188811E-03
          0                 4           2            14   16     1      -0.1051509814E-04      14   16    1      -0.2691241447E-01      0.4375521295E-01      0.3967901837E+00     -0.1051509814E-04

    ------------------------------------------------
       NWT REQUIRED            4 OUTER ITERATIONS 
       AND A TOTAL OF         16 INNER ITERATIONS.
    ------------------------------------------------
                                                   Max.-Head-Change                        Max.-Flux-Residual
  Residual-Control   Outer-Iter.   Inner-Iter.     Column Row Layer    Max.-Head-Change    Column Row Layer    Max.-Flux-Residual            L2-New               L2-Old           Solver-Max-Delh
          0                 1           6             9   10     1      -0.1321640641E-01       9   10    1      -0.1671369023E+02      0.3516040828E+02      0.4375521295E-01     -0.1321640641E-01
          0                 2           4             9   10     1       0.1140273868E-02       9   10    1       0.1669481469E+01      0.3811904141E+01      0.3516040828E+02      0.1140273868E-02
          0                 3           3             9   10     1       0.5723668566E-04       9   10    1       0.8362281224E-01      0.1923402176E+00      0.3811904141E+01      0.5723668566E-04

    ------------------------------------------------
       NWT REQUIRED            3 OUTER ITERATIONS 
       AND A TOTAL OF         13 INNER ITERATIONS.
    ------------------------------------------------
                                                   Max.-Head-Change                        Max.-Flux-Residual
  Residual-Control   Outer-Iter.   Inner-Iter.     Column Row Layer    Max.-Head-Change    Column Row Layer    Max.-Flux-Residual            L2-New               L2-Old           Solver-Max-Delh
          0                 1           5             6    7     1      -0.7123516583E-02       6    7    1      -0.6639760066E+01      0.1765029740E+02      0.1923402176E+00     -0.7123516583E-02
          0                 2           4             6    7     1       0.6144682516E-03       6    7    1       0.6637316510E+00      0.1770425129E+01      0.1765029740E+02      0.6144682516E-03
          0                 3           3             6    7     1       0.3147141882E-04       6    7    1       0.3360212976E-01      0.9303234156E-01      0.1770425129E+01      0.3147141882E-04

    ------------------------------------------------
       NWT REQUIRED            3 OUTER ITERATIONS 
       AND A TOTAL OF         12 INNER ITERATIONS.
    ------------------------------------------------
                                                   Max.-Head-Change                        Max.-Flux-Residual
  Residual-Control   Outer-Iter.   Inner-Iter.     Column Row Layer    Max.-Head-Change    Column Row Layer    Max.-Flux-Residual            L2-New               L2-Old           Solver-Max-Delh
          0                 1           5             8    5     1      -0.3746266511E-02       7    5    1      -0.3320841653E+01      0.9053190420E+01      0.9303234156E-01     -0.3746266511E-02
          0                 2           4             8    5     1       0.3234628252E-03       7    5    1       0.3320770598E+00      0.9263342988E+00      0.9053190420E+01      0.3234628252E-03
          0                 3           2             8    5     1       0.1572663618E-04       6    6    1       0.1673313248E-01      0.4909922887E-01      0.9263342988E+00      0.1572663618E-04

    ------------------------------------------------
       NWT REQUIRED            3 OUTER ITERATIONS 
       AND A TOTAL OF         11 INNER ITERATIONS.
    ------------------------------------------------
                                                   Max.-Head-Change                        Max.-Flux-Residual
  Residual-Control   Outer-Iter.   Inner-Iter.     Column Row Layer    Max.-Head-Change    Column Row Layer    Max.-Flux-Residual            L2-New               L2-Old           Solver-Max-Delh
          0                 1           5             7    5     1      -0.1743231488E-02       7    5    1      -0.1833615310E+01      0.4659267886E+01      0.4909922887E-01     -0.1743231488E-02
          0                 2           3             7    5     1       0.1505664328E-03       7    5    1       0.1836211242E+00      0.4950221236E+00      0.4659267886E+01      0.1505664328E-03
          0                 3           2             7    5     1       0.7605097600E-05      16   17    1      -0.1044869341E-01      0.2931136840E-01      0.4950221236E+00      0.7605097600E-05

    ------------------------------------------------
       NWT REQUIRED            3 OUTER ITERATIONS 
       AND A TOTAL OF         10 INNER ITERATIONS.
    ------------------------------------------------
                                                   Max.-Head-Change                        Max.-Flux-Residual
  Residual-Control   Outer-Iter.   Inner-Iter.     Column Row Layer    Max.-Head-Change    Column Row Layer    Max.-Flux-Residual            L2-New               L2-Old           Solver-Max-Delh
          0                 1           4             7    5     1      -0.7434251184E-03       7    9    1      -0.1181917323E+01      0.2369161255E+01      0.2931136840E-01     -0.7434251184E-03
          0                 2           3             7    5     1       0.6417013439E-04       7    9    1       0.1183160671E+00      0.2506305834E+00      0.2369161255E+01      0.6417013439E-04

    ------------------------------------------------
       NWT REQUIRED            2 OUTER ITERATIONS 
       AND A TOTAL OF          7 INNER ITERATIONS.
    ------------------------------------------------
                                                   Max.-Head-Change                        Max.-Flux-Residual
  Residual-Control   Outer-Iter.   Inner-Iter.     Column Row Layer    Max.-Head-Change    Column Row Layer    Max.-Flux-Residual            L2-New               L2-Old           Solver-Max-Delh
          0                 1           4             7    9     1      -0.4413453011E-03       7    9    1      -0.6827243992E+00      0.1206263992E+01      0.2506305834E+00     -0.4413453011E-03
          0                 2           2             7    9     1       0.3809639731E-04       7    9    1       0.6836492766E-01      0.1221764045E+00      0.1206263992E+01      0.3809639731E-04

    ------------------------------------------------
       NWT REQUIRED            2 OUTER ITERATIONS 
       AND A TOTAL OF          6 INNER ITERATIONS.
    ------------------------------------------------

 OUTPUT CONTROL FOR STRESS PERIOD     11   TIME STEP     2
    SAVE BUDGET
 UBDSV1 SAVING "         STORAGE" ON UNIT  70 AT TIME STEP    2, STRESS PERIOD  11
 UBDSV2 SAVING "   CONSTANT HEAD" ON UNIT  70 AT TIME STEP    2, STRESS PERIOD  11
 UBDSV1 SAVING "FLOW RIGHT FACE " ON UNIT  70 AT TIME STEP    2, STRESS PERIOD  11
 UBDSV1 SAVING "FLOW FRONT FACE " ON UNIT  70 AT TIME STEP    2, STRESS PERIOD  11
 UBDSV1 SAVING "FLOW LOWER FACE " ON UNIT  70 AT TIME STEP    2, STRESS PERIOD  11
 UBDSV4 SAVING " HEAD DEP BOUNDS" ON UNIT  70 AT TIME STEP    2, STRESS PERIOD  11
 UBDSV4 SAVING "  STREAM LEAKAGE" ON UNIT  70 AT TIME STEP    2, STRESS PERIOD  11



 UBDSV4 SAVING "             MNW" ON UNIT  70 AT TIME STEP    2, STRESS PERIOD  11
 
 
 
 
 
 
 
 
 UBDSV3 SAVING "FARM  NET  RECH." ON UNIT  70 AT TIME STEP    2, STRESS PERIOD  11
 UBDSV4 SAVING " GHOST-NODE FLUX" ON UNIT  70 AT TIME STEP    2, STRESS PERIOD  11
 UBDSV4 SAVING " GHOST-NODE FLUX" ON UNIT  70 AT TIME STEP    2, STRESS PERIOD  11
 UBDSV4 SAVING " GHOST-NODE FLUX" ON UNIT  70 AT TIME STEP    2, STRESS PERIOD  11
1
  VOLUMETRIC BUDGET FOR ENTIRE MODEL AT END OF TIME STEP    2 IN STRESS PERIOD     11
  ------------------------------------------------------------------------------

     CUMULATIVE VOLUMES      L**3       RATES FOR THIS TIME STEP      L**3/T
     ------------------                 ------------------------

           IN:                                      IN:
           ---                                      ---
             STORAGE =    12346808.0000               STORAGE =         110.5269
       CONSTANT HEAD =           0.0000         CONSTANT HEAD =           0.0000
     HEAD DEP BOUNDS =     2428250.0000       HEAD DEP BOUNDS =        8373.4648
      STREAM LEAKAGE =     6230417.0000        STREAM LEAKAGE =       20700.2031
                 MNW =       21727.4961                   MNW =          87.0950
          FARM WELLS =           0.0000            FARM WELLS =           0.0000
    FARM  NET  RECH. =     6200629.5000      FARM  NET  RECH. =       16144.3457
     GHOST-NODE FLUX =     1735669.8750       GHOST-NODE FLUX =        6266.9717

            TOTAL IN =    28963504.0000              TOTAL IN =       51682.6094

          OUT:                                     OUT:
          ----                                     ----
             STORAGE =     4209536.0000               STORAGE =       25160.1094
       CONSTANT HEAD =           0.0000         CONSTANT HEAD =           0.0000
     HEAD DEP BOUNDS =     5693860.0000       HEAD DEP BOUNDS =       16486.2676
      STREAM LEAKAGE =      326280.8125        STREAM LEAKAGE =        1069.7356
                 MNW =     3012098.0000                   MNW =          87.0950
          FARM WELLS =     3852822.5000            FARM WELLS =        1439.7899
    FARM  NET  RECH. =     1231218.8750      FARM  NET  RECH. =         863.3780
     GHOST-NODE FLUX =    10637691.0000       GHOST-NODE FLUX =        6576.2144

           TOTAL OUT =    28963508.0000             TOTAL OUT =       51682.5859

            IN - OUT =          -4.0000              IN - OUT =       2.3438E-02

 PERCENT DISCREPANCY =          -0.00     PERCENT DISCREPANCY =           0.00






          TIME SUMMARY AT END OF TIME STEP     2 IN STRESS PERIOD     11
                    SECONDS     MINUTES      HOURS       DAYS        YEARS
                    -----------------------------------------------------------
   TIME STEP LENGTH 1.31414E+06  21902.      365.04      15.210     4.16427E-02
 STRESS PERIOD TIME 2.62829E+06  43805.      730.08      30.420     8.32854E-02
         TOTAL TIME 2.89112E+07 4.81853E+05  8030.9      334.62     0.91614    
1
1
                            STRESS PERIOD NO.     12, LENGTH =   30.42000    
                            -----------------------------------------------

                              NUMBER OF TIME STEPS =     2

                               MULTIPLIER FOR DELT =     1.000

                            INITIAL TIME STEP SIZE =   15.21000    

 REUSING NON-PARAMETER GHB CELLS FROM LAST STRESS PERIOD

     92 GHB CELLS

 REUSING STREAM SEGMENT DATA FROM LAST STRESS PERIOD

 REUSING MNW7  FROM LAST STRESS PERIOD

 Parameter:  WELLS1
 WELL NO. LAYER    ROW    COL  F-WELL ID    FARM ID         QMAX         QMAXRESET       
 ----------------------------------------------------------------------------------------
       1      1      5      6          1          1      5.0000E+03              0
       2      1      8      7          2          1      5.0000E+03              0
       3      1      8      9          3          1      5.0000E+03              0
       4      1      5      9          4          2      3.0000E+03              0
       5      1      6     10          5          2      2.0000E+03              0
       6      1      7     11          6          2      1.0000E+03              0
       7      1     18      3          7          3      2.0000E+03              0
       8      1     21      3          8          3      4.0000E+03              0
       9      1     18     19          9          4      3.0000E+03              0
      10      1     21     19         10          4      5.0000E+03              0
      11      0      6      2        -11          5      5.0000E+03              1
      12      0      8      2        -12          5      5.0000E+03              1
      13      0     10      2        -13          5      5.0000E+03              1
      14      0      3     19        -14          6      1.0000E+04              1
      15      0      6     17        -15          6      6.0000E+03              1

 NUMBER OF ACTIVE FARM WELLS:       15

 THE SINGLE LAYER FMP- OR MNW- WELL IN ROW      8 AND COLUMN      7 IS LOCATED IN AN INACTIVE CELL (IBOUND=0) AND HAS BEEN EXCLUDED FROM THE TOTAL MAXIMUM CAPACITY PER FARM

 THE SINGLE LAYER FMP- OR MNW- WELL IN ROW      8 AND COLUMN      9 IS LOCATED IN AN INACTIVE CELL (IBOUND=0) AND HAS BEEN EXCLUDED FROM THE TOTAL MAXIMUM CAPACITY PER FARM

 THE SINGLE LAYER FMP- OR MNW- WELL IN ROW      6 AND COLUMN     10 IS LOCATED IN AN INACTIVE CELL (IBOUND=0) AND HAS BEEN EXCLUDED FROM THE TOTAL MAXIMUM CAPACITY PER FARM

 THE SINGLE LAYER FMP- OR MNW- WELL IN ROW      7 AND COLUMN     11 IS LOCATED IN AN INACTIVE CELL (IBOUND=0) AND HAS BEEN EXCLUDED FROM THE TOTAL MAXIMUM CAPACITY PER FARM

 FARM-ID  NUMBER OF WELLS PER FARM  TOTAL MAX.CAPACITY PER FARM
       1                         1                    5000.0000
       2                         1                    3000.0000
       3                         2                    6000.0000
       4                         2                    8000.0000
       5                         3                   15000.0000
       6                         2                   16000.0000
       7                         0                       0.0000
       8                         0                       0.0000

 READING LIST ON UNIT   20 WITH FILE NAME: C:\MF_OWHM_Release_Package\MF_OWHM_v1_0\examples\test-run-owhm-lgr\fmp-lgr-nwt\DATA_FMP\OFE.in
 LIST SCALING FACTOR= 0.60000    
 (THE SCALE FACTOR WAS APPLIED TO FIELDS   2 -   7)

 Reading list on unit   30

 Reading list on unit   40

  REF. EVAPOTRANSPIRATION =  9.600000E-04

 READING LIST ON UNIT   50 WITH FILE NAME: C:\MF_OWHM_Release_Package\MF_OWHM_v1_0\examples\test-run-owhm-lgr\fmp-lgr-nwt\DATA_FMP\FTE.in

Transpiratory and Evaporative Fractions of Crop Consumptive Use
    % Transpiration % Evap. for Precip. % Evap. for Irrig.
    1          0.000          1.000          0.500
    2          0.000          1.000          0.350
    3          0.957          0.043          0.043
    4          0.125          0.875          0.875
    5          0.926          0.074          0.000
    6          0.200          0.800          0.000

 READING LIST ON UNIT   60 WITH FILE NAME: C:\MF_OWHM_Release_Package\MF_OWHM_v1_0\examples\test-run-owhm-lgr\fmp-lgr-nwt\DATA_FMP\INEFFSW.in

FRACTIONS OF IN-EFFICIENT LOSSES TO SW-RUNOFF FROM 
     PRECIPITATION:  IRRIGATION:
    1          0.500          0.600
    2          0.400          0.300
    3          0.600          0.500
    4          0.700          0.600
    5          0.830          0.000
    6          0.730          0.000

       PRECIPITATION FLUX =  2.100000E-03

 OPENING FILE WITH FILENAME: ./DATA_FMP/NRDV.in
 AND UNIT NUMBER: -158
 READING SCALE FACTOR LIST ON UNIT   80 ASSOCIATED WITH FILE: C:\MF_OWHM_Release_Package\MF_OWHM_v1_0\examples\test-run-owhm-lgr\fmp-lgr-nwt\DATA_FMP\NRDV.in
 FIELD     SCALE FACTOR
     1       1.0000    
     2       1.0000    
     3       1.0000    
     4       1.0000    

UNRANKED LIST OF NON-ROUTED DELIVERIES TO FARMS [L3]:
TYPE:             1

FARM-ID  VOLUME:
      1   1.500E+04
      2   1.500E+04
      3   2.000E+04
      4   1.000E+04
      5   1.000E+04
      6   2.000E+04
      7   0.000E+00
      8   0.000E+00

FARM-ID  PRIORITY RANK OF NRD-TYPE:
      1           1
      2           1
      3           1
      4           1
      5           1
      6           1
      7           1
      8           1

FARM-ID  USE-FLAG:
         0 = SUFFICIENT USE
         1 = ABSOLUTE USE (RECHARGE SURPLUS BACK INTO CANAL)
         2 = ABSOLUTE USE (INJECT SURPLUS INTO FARM-WELLS)
      1           0
      2           0
      3           0
      4           0
      5           0
      6           0
      7           0
      8           0

LIST OF NON-ROUTED DELIVERIES IN RANKED SEQUENCE [L3/T]:

FARM-ID  RATE:
      1   4.931E+02
      2   4.931E+02
      3   6.575E+02
      4   3.287E+02
      5   3.287E+02
      6   6.575E+02
      7   0.000E+00
      8   0.000E+00

FARM-ID  USE-FLAG:
         0 = SUFFICIENT USE
         1 = ABSOLUTE USE (RECHARGE SURPLUS BACK INTO CANAL)
         2 = ABSOLUTE USE (INJECT SURPLUS INTO FARM-WELLS)
      1           0
      2           0
      3           0
      4           0
      5           0
      6           0
      7           0
      8           0

SURFACE-WATER FARM ALLOTMENT HEIGHT [L]:   0.000
 
 SOLVING FOR HEAD 
                                                   Max.-Head-Change                        Max.-Flux-Residual
  Residual-Control   Outer-Iter.   Inner-Iter.     Column Row Layer    Max.-Head-Change    Column Row Layer    Max.-Flux-Residual            L2-New               L2-Old           Solver-Max-Delh
          0                 1           8             9   10     1      -0.1097147480E+01       8   10    1      -0.1389690741E+04      0.3126653913E+04      0.1221764045E+00     -0.1097147480E+01
          1                 1           0             9   10     1      -0.7680032228E+00       8   10    1       0.1992801176E+04      0.4540708277E+04      0.3126653913E+04     -0.1097147480E+01
          2                 1           0             9   10     1      -0.5376022468E+00       8   10    1       0.1539080774E+04      0.3866984246E+04      0.4540708277E+04     -0.1097147480E+01
          3                 1           0             9   10     1      -0.3763215663E+00       8   10    1       0.1220547213E+04      0.3468460307E+04      0.3866984246E+04     -0.1097147480E+01
          0                 2           8             9   10     1       0.9510894306E+00       8   10    1       0.9971165967E+03      0.3341644041E+04      0.3468460307E+04      0.9510894306E+00
          0                 3           7            16   16     1       0.2845220424E+00      16   16    1       0.1027007242E+04      0.1656393911E+04      0.3341644041E+04      0.2845220424E+00
          0                 4           6             9   10     1      -0.3002815080E-01       9   10    1      -0.1204628494E+03      0.1880689181E+03      0.1656393911E+04     -0.3002815080E-01
          0                 5           5             9   10     1      -0.5536827870E-02       9   10    1      -0.2209673513E+02      0.3148658539E+02      0.1880689181E+03     -0.5536827870E-02
          0                 6           4             9   10     1      -0.1019322614E-02       9   10    1      -0.4051391624E+01      0.6813017415E+01      0.3148658539E+02     -0.1019322614E-02
          0                 7           4            12   11     1      -0.2129493348E-03      12   11    1      -0.1239819275E+01      0.1929909907E+01      0.6813017415E+01     -0.2129493348E-03
          0                 8           3            12   11     1      -0.8958335408E-04      12   11    1      -0.5720388439E+00      0.6749219644E+00      0.1929909907E+01     -0.8958335408E-04

    ------------------------------------------------
       NWT REQUIRED            8 OUTER ITERATIONS 
       AND A TOTAL OF         45 INNER ITERATIONS.
    ------------------------------------------------
                                                   Max.-Head-Change                        Max.-Flux-Residual
  Residual-Control   Outer-Iter.   Inner-Iter.     Column Row Layer    Max.-Head-Change    Column Row Layer    Max.-Flux-Residual            L2-New               L2-Old           Solver-Max-Delh
          0                 1           7             9    9     1       0.1458181102E+00      10   11    1       0.1713061320E+03      0.3829919779E+03      0.6749219644E+00      0.1458181102E+00
          0                 2           6            17   16     1      -0.1976234308E-01      17   16    1      -0.6322283474E+02      0.7332396925E+02      0.3829919779E+03     -0.1976234308E-01
          0                 3           4             9    9     1      -0.6401188433E-03      17   16    1       0.2029362576E+01      0.3022847627E+01      0.7332396925E+02     -0.6401188433E-03
          0                 4           3            17   16     1       0.8536009670E-04      17   16    1       0.3152476803E+00      0.3605787631E+00      0.3022847627E+01      0.8536009670E-04

    ------------------------------------------------
       NWT REQUIRED            4 OUTER ITERATIONS 
       AND A TOTAL OF         20 INNER ITERATIONS.
    ------------------------------------------------
                                                   Max.-Head-Change                        Max.-Flux-Residual
  Residual-Control   Outer-Iter.   Inner-Iter.     Column Row Layer    Max.-Head-Change    Column Row Layer    Max.-Flux-Residual            L2-New               L2-Old           Solver-Max-Delh
          0                 1           6            10   11     1       0.4747361220E-01      11   11    1       0.6261206210E+02      0.1114531094E+03      0.3605787631E+00      0.4747361220E-01
          0                 2           5            12   11     1      -0.1256432724E-01      12   11    1      -0.3807059587E+02      0.6257797783E+02      0.1114531094E+03     -0.1256432724E-01
          0                 3           4            12   11     1      -0.8688482634E-03      12   11    1      -0.2801142560E+01      0.4400391967E+01      0.6257797783E+02     -0.8688482634E-03
          0                 4           3            12   11     1      -0.8470108778E-04      12   11    1      -0.2697951474E+00      0.4332642753E+00      0.4400391967E+01     -0.8470108778E-04

    ------------------------------------------------
       NWT REQUIRED            4 OUTER ITERATIONS 
       AND A TOTAL OF         18 INNER ITERATIONS.
    ------------------------------------------------
                                                   Max.-Head-Change                        Max.-Flux-Residual
  Residual-Control   Outer-Iter.   Inner-Iter.     Column Row Layer    Max.-Head-Change    Column Row Layer    Max.-Flux-Residual            L2-New               L2-Old           Solver-Max-Delh
          0                 1           6             9    9     1      -0.3006543287E-01       9    9    1      -0.3996575719E+02      0.6079689137E+02      0.4332642753E+00     -0.3006543287E-01
          0                 2           5             9    9     2       0.2578602937E-02      17   16    1      -0.5349194141E+01      0.8846163969E+01      0.6079689137E+02      0.2578602937E-02
          0                 3           3             9    9     2       0.1316584516E-03      17   16    1       0.2000117084E+00      0.4334564637E+00      0.8846163969E+01      0.1316584516E-03
          0                 4           2            17   16     1       0.1527175247E-04      17   16    1       0.5585421342E-01      0.6436413360E-01      0.4334564637E+00      0.1527175247E-04

    ------------------------------------------------
       NWT REQUIRED            4 OUTER ITERATIONS 
       AND A TOTAL OF         16 INNER ITERATIONS.
    ------------------------------------------------
                                                   Max.-Head-Change                        Max.-Flux-Residual
  Residual-Control   Outer-Iter.   Inner-Iter.     Column Row Layer    Max.-Head-Change    Column Row Layer    Max.-Flux-Residual            L2-New               L2-Old           Solver-Max-Delh
          0                 1           6             9    9     1      -0.2594201986E-01       9    9    1      -0.2996411282E+02      0.4441255905E+02      0.6436413360E-01     -0.2594201986E-01
          0                 2           5             9    9     1       0.2192288838E-02      17   16    1      -0.3698999168E+01      0.5877394173E+01      0.4441255905E+02      0.2192288838E-02
          0                 3           3             9    9     1       0.1134910621E-03       9    9    1       0.1496246934E+00      0.2554033322E+00      0.5877394173E+01      0.1134910621E-03
          0                 4           2            17   16     1       0.7404189237E-05      17   16    1       0.2768383722E-01      0.3673505639E-01      0.2554033322E+00      0.7404189237E-05

    ------------------------------------------------
       NWT REQUIRED            4 OUTER ITERATIONS 
       AND A TOTAL OF         16 INNER ITERATIONS.
    ------------------------------------------------
                                                   Max.-Head-Change                        Max.-Flux-Residual
  Residual-Control   Outer-Iter.   Inner-Iter.     Column Row Layer    Max.-Head-Change    Column Row Layer    Max.-Flux-Residual            L2-New               L2-Old           Solver-Max-Delh
          0                 1           6             9    9     1      -0.1322210494E-01       9    9    1      -0.1348186302E+02      0.2775888022E+02      0.3673505639E-01     -0.1322210494E-01
          0                 2           4             9    9     1       0.1110018614E-02      17   16    1      -0.2276799235E+01      0.3581694702E+01      0.2775888022E+02      0.1110018614E-02
          0                 3           3             9    9     1       0.5804871618E-04       9    9    1       0.6767356745E-01      0.1532067365E+00      0.3581694702E+01      0.5804871618E-04

    ------------------------------------------------
       NWT REQUIRED            3 OUTER ITERATIONS 
       AND A TOTAL OF         13 INNER ITERATIONS.
    ------------------------------------------------
                                                   Max.-Head-Change                        Max.-Flux-Residual
  Residual-Control   Outer-Iter.   Inner-Iter.     Column Row Layer    Max.-Head-Change    Column Row Layer    Max.-Flux-Residual            L2-New               L2-Old           Solver-Max-Delh
          0                 1           5             8    5     1      -0.5042813811E-02      10   11    1      -0.5890381913E+01      0.1566781739E+02      0.1532067365E+00     -0.5042813811E-02
          0                 2           4             8    5     1       0.4351459442E-03      17   16    1      -0.1282778616E+01      0.2014865897E+01      0.1566781739E+02      0.4351459442E-03
          0                 3           3             8    5     1       0.2192079368E-04      10   11    1       0.2952882316E-01      0.8924295340E-01      0.2014865897E+01      0.2192079368E-04

    ------------------------------------------------
       NWT REQUIRED            3 OUTER ITERATIONS 
       AND A TOTAL OF         12 INNER ITERATIONS.
    ------------------------------------------------
                                                   Max.-Head-Change                        Max.-Flux-Residual
  Residual-Control   Outer-Iter.   Inner-Iter.     Column Row Layer    Max.-Head-Change    Column Row Layer    Max.-Flux-Residual            L2-New               L2-Old           Solver-Max-Delh
          0                 1           5            10   11     1      -0.2596982561E-02      10   11    1      -0.3407637763E+01      0.8590938951E+01      0.8924295340E-01     -0.2596982561E-02
          0                 2           4             7    5     1       0.2183808515E-03      17   16    1      -0.6750853824E+00      0.1087887587E+01      0.8590938951E+01      0.2183808515E-03
          0                 3           2             8    5     1       0.1100317927E-04      12   12    1      -0.1856255077E-01      0.5330509227E-01      0.1087887587E+01      0.1100317927E-04

    ------------------------------------------------
       NWT REQUIRED            3 OUTER ITERATIONS 
       AND A TOTAL OF         11 INNER ITERATIONS.
    ------------------------------------------------
                                                   Max.-Head-Change                        Max.-Flux-Residual
  Residual-Control   Outer-Iter.   Inner-Iter.     Column Row Layer    Max.-Head-Change    Column Row Layer    Max.-Flux-Residual            L2-New               L2-Old           Solver-Max-Delh
          0                 1           5            10   11     1      -0.1202117452E-02       9    9    1       0.1746994131E+01      0.4538787502E+01      0.5330509227E-01     -0.1202117452E-02
          0                 2           3            17   16     1      -0.1059253930E-03      17   16    1      -0.3337552520E+00      0.5611125543E+00      0.4538787502E+01     -0.1059253930E-03
          0                 3           2             7    5     1       0.4951346481E-05      12   11    1      -0.1172241638E-01      0.2793078923E-01      0.5611125543E+00      0.4951346481E-05

    ------------------------------------------------
       NWT REQUIRED            3 OUTER ITERATIONS 
       AND A TOTAL OF         10 INNER ITERATIONS.
    ------------------------------------------------
                                                   Max.-Head-Change                        Max.-Flux-Residual
  Residual-Control   Outer-Iter.   Inner-Iter.     Column Row Layer    Max.-Head-Change    Column Row Layer    Max.-Flux-Residual            L2-New               L2-Old           Solver-Max-Delh
          0                 1           4             9    9     1       0.5634452255E-03       9    9    1       0.1166468936E+01      0.2210836758E+01      0.2793078923E-01      0.5634452255E-03
          0                 2           3             9    9     1      -0.4978023549E-04      17   16    1      -0.1538168449E+00      0.2682237024E+00      0.2210836758E+01     -0.4978023549E-04

    ------------------------------------------------
       NWT REQUIRED            2 OUTER ITERATIONS 
       AND A TOTAL OF          7 INNER ITERATIONS.
    ------------------------------------------------
                                                   Max.-Head-Change                        Max.-Flux-Residual
  Residual-Control   Outer-Iter.   Inner-Iter.     Column Row Layer    Max.-Head-Change    Column Row Layer    Max.-Flux-Residual            L2-New               L2-Old           Solver-Max-Delh
          0                 1           3             9    9     1       0.2426313358E-03       9    9    1       0.5135843030E+00      0.9634329009E+00      0.2682237024E+00      0.2426313358E-03
          0                 2           2             9    9     1      -0.2125935976E-04      17   16    1      -0.6354105228E-01      0.1144701359E+00      0.9634329009E+00     -0.2125935976E-04

    ------------------------------------------------
       NWT REQUIRED            2 OUTER ITERATIONS 
       AND A TOTAL OF          5 INNER ITERATIONS.
    ------------------------------------------------

 OUTPUT CONTROL FOR STRESS PERIOD     12   TIME STEP     1
    SAVE BUDGET
 UBDSV1 SAVING "         STORAGE" ON UNIT  70 AT TIME STEP    1, STRESS PERIOD  12
 UBDSV2 SAVING "   CONSTANT HEAD" ON UNIT  70 AT TIME STEP    1, STRESS PERIOD  12
 UBDSV1 SAVING "FLOW RIGHT FACE " ON UNIT  70 AT TIME STEP    1, STRESS PERIOD  12
 UBDSV1 SAVING "FLOW FRONT FACE " ON UNIT  70 AT TIME STEP    1, STRESS PERIOD  12
 UBDSV1 SAVING "FLOW LOWER FACE " ON UNIT  70 AT TIME STEP    1, STRESS PERIOD  12
 UBDSV4 SAVING " HEAD DEP BOUNDS" ON UNIT  70 AT TIME STEP    1, STRESS PERIOD  12
 UBDSV4 SAVING "  STREAM LEAKAGE" ON UNIT  70 AT TIME STEP    1, STRESS PERIOD  12



 UBDSV4 SAVING "             MNW" ON UNIT  70 AT TIME STEP    1, STRESS PERIOD  12
 
 
 
 
 
 
 
 
 UBDSV3 SAVING "FARM  NET  RECH." ON UNIT  70 AT TIME STEP    1, STRESS PERIOD  12
 UBDSV4 SAVING " GHOST-NODE FLUX" ON UNIT  70 AT TIME STEP    1, STRESS PERIOD  12
 UBDSV4 SAVING " GHOST-NODE FLUX" ON UNIT  70 AT TIME STEP    1, STRESS PERIOD  12
 UBDSV4 SAVING " GHOST-NODE FLUX" ON UNIT  70 AT TIME STEP    1, STRESS PERIOD  12
 
 SOLVING FOR HEAD 
                                                   Max.-Head-Change                        Max.-Flux-Residual
  Residual-Control   Outer-Iter.   Inner-Iter.     Column Row Layer    Max.-Head-Change    Column Row Layer    Max.-Flux-Residual            L2-New               L2-Old           Solver-Max-Delh
          0                 1           8             6    6     1       0.7030989882E+00       6    5    1       0.3502171586E+03      0.2420167063E+04      0.1144701359E+00      0.7030989882E+00
          0                 2           7             6    6     1      -0.6041015760E-01      12   12    1       0.3827759262E+02      0.2477700430E+03      0.2420167063E+04     -0.6041015760E-01
          0                 3           6             2    8     2      -0.1306738393E-01       2    8    1      -0.2712054126E+02      0.5071448887E+02      0.2477700430E+03     -0.1306738393E-01
          0                 4           5             2    8     3      -0.4290690921E-02       2    8    1      -0.9424478197E+01      0.1609345644E+02      0.5071448887E+02     -0.4290690921E-02
          0                 5           4             2    8     3      -0.1342625849E-02       2    8    1      -0.2981417376E+01      0.4759165460E+01      0.1609345644E+02     -0.1342625849E-02
          0                 6           4             2    8     3      -0.4142904219E-03       2    8    1      -0.9257556039E+00      0.1447248779E+01      0.4759165460E+01     -0.4142904219E-03
          0                 7           3             2    8     3      -0.1269872389E-03       2    8    1      -0.2852678378E+00      0.4405983589E+00      0.1447248779E+01     -0.1269872389E-03
          0                 8           3             2    8     3      -0.3912291120E-04       2    8    1      -0.8774045669E-01      0.1344878103E+00      0.4405983589E+00     -0.3912291120E-04

    ------------------------------------------------
       NWT REQUIRED            8 OUTER ITERATIONS 
       AND A TOTAL OF         40 INNER ITERATIONS.
    ------------------------------------------------
                                                   Max.-Head-Change                        Max.-Flux-Residual
  Residual-Control   Outer-Iter.   Inner-Iter.     Column Row Layer    Max.-Head-Change    Column Row Layer    Max.-Flux-Residual            L2-New               L2-Old           Solver-Max-Delh
          0                 1           6             9    9     2       0.9246297010E-01       9    9    1       0.9497152048E+02      0.1949501793E+03      0.1344878103E+00      0.9246297010E-01
          0                 2           5            12   12     1      -0.8187784104E-02      12   11    1      -0.2304244789E+02      0.4195167527E+02      0.1949501793E+03     -0.8187784104E-02
          0                 3           4            12   12     1       0.6479985958E-03      12   12    1       0.3904435773E+01      0.5103046162E+01      0.4195167527E+02      0.6479985958E-03
          0                 4           3            12   11     1      -0.4237959639E-04      12   11    1      -0.1792053410E+00      0.2579804098E+00      0.5103046162E+01     -0.4237959639E-04

    ------------------------------------------------
       NWT REQUIRED            4 OUTER ITERATIONS 
       AND A TOTAL OF         18 INNER ITERATIONS.
    ------------------------------------------------
                                                   Max.-Head-Change                        Max.-Flux-Residual
  Residual-Control   Outer-Iter.   Inner-Iter.     Column Row Layer    Max.-Head-Change    Column Row Layer    Max.-Flux-Residual            L2-New               L2-Old           Solver-Max-Delh
          0                 1           6             8    9     1       0.1472759727E-01       8    9    1       0.2206504137E+02      0.4702317443E+02      0.2579804098E+00      0.1472759727E-01
          1                 1           0             8    9     1       0.1030931791E-01      12   11    1      -0.3996433877E+02      0.6366879089E+02      0.4702317443E+02      0.1472759727E-01
          0                 2           5            12   11     1      -0.1441385196E-01      12   11    1      -0.3999045214E+02      0.6574227311E+02      0.6366879089E+02     -0.1441385196E-01
          0                 3           4            12   11     1       0.1137494058E-02      12   11    1       0.3796391985E+01      0.6708357686E+01      0.6574227311E+02      0.1137494058E-02
          0                 4           2            12   11     2      -0.3196803494E-04      12   12    1       0.9370130755E-01      0.2232336625E+00      0.6708357686E+01     -0.3196803494E-04

    ------------------------------------------------
       NWT REQUIRED            4 OUTER ITERATIONS 
       AND A TOTAL OF         17 INNER ITERATIONS.
    ------------------------------------------------
                                                   Max.-Head-Change                        Max.-Flux-Residual
  Residual-Control   Outer-Iter.   Inner-Iter.     Column Row Layer    Max.-Head-Change    Column Row Layer    Max.-Flux-Residual            L2-New               L2-Old           Solver-Max-Delh
          0                 1           6             9    9     2      -0.2204394978E-01       9    9    1      -0.2628641079E+02      0.4423255030E+02      0.2232336625E+00     -0.2204394978E-01
          0                 2           5             9    9     2       0.1883152636E-02       9    9    1       0.2626794126E+01      0.4527746307E+01      0.4423255030E+02      0.1883152636E-02
          0                 3           3             9    9     2       0.9625257370E-04       9    9    1       0.1309553379E+00      0.2637762404E+00      0.4527746307E+01      0.9625257370E-04

    ------------------------------------------------
       NWT REQUIRED            3 OUTER ITERATIONS 
       AND A TOTAL OF         14 INNER ITERATIONS.
    ------------------------------------------------
                                                   Max.-Head-Change                        Max.-Flux-Residual
  Residual-Control   Outer-Iter.   Inner-Iter.     Column Row Layer    Max.-Head-Change    Column Row Layer    Max.-Flux-Residual            L2-New               L2-Old           Solver-Max-Delh
          0                 1           6             9    9     2      -0.1825152339E-01       9    9    1      -0.2046420159E+02      0.3528677743E+02      0.2637762404E+00     -0.1825152339E-01
          0                 2           4             9    9     2       0.1550980891E-02       9    9    1       0.2044707437E+01      0.3504451998E+01      0.3528677743E+02      0.1550980891E-02
          0                 3           3             9    9     2       0.7979338757E-04       9    9    1       0.1021698640E+00      0.1831798495E+00      0.3504451998E+01      0.7979338757E-04

    ------------------------------------------------
       NWT REQUIRED            3 OUTER ITERATIONS 
       AND A TOTAL OF         13 INNER ITERATIONS.
    ------------------------------------------------
                                                   Max.-Head-Change                        Max.-Flux-Residual
  Residual-Control   Outer-Iter.   Inner-Iter.     Column Row Layer    Max.-Head-Change    Column Row Layer    Max.-Flux-Residual            L2-New               L2-Old           Solver-Max-Delh
          0                 1           5             9    9     1      -0.9321362494E-02       9    9    1      -0.9587471039E+01      0.2124553794E+02      0.1831798495E+00     -0.9321362494E-02
          0                 2           4             9    9     1       0.7842281813E-03       9    9    1       0.9582031101E+00      0.2124432245E+01      0.2124553794E+02      0.7842281813E-03
          0                 3           3             9    9     1       0.4058982604E-04       9    9    1       0.4776240792E-01      0.1128087282E+00      0.2124432245E+01      0.4058982604E-04

    ------------------------------------------------
       NWT REQUIRED            3 OUTER ITERATIONS 
       AND A TOTAL OF         12 INNER ITERATIONS.
    ------------------------------------------------
                                                   Max.-Head-Change                        Max.-Flux-Residual
  Residual-Control   Outer-Iter.   Inner-Iter.     Column Row Layer    Max.-Head-Change    Column Row Layer    Max.-Flux-Residual            L2-New               L2-Old           Solver-Max-Delh
          0                 1           5             8    5     1      -0.4345312557E-02       8    5    1      -0.3681748309E+01      0.1111550735E+02      0.1128087282E+00     -0.4345312557E-02
          0                 2           4             8    5     1       0.3749322565E-03       8    5    1       0.3679635596E+00      0.1122701855E+01      0.1111550735E+02      0.3749322565E-03
          0                 3           2             8    5     1       0.1879604961E-04       7    5    1       0.1883179133E-01      0.6035872889E-01      0.1122701855E+01      0.1879604961E-04

    ------------------------------------------------
       NWT REQUIRED            3 OUTER ITERATIONS 
       AND A TOTAL OF         11 INNER ITERATIONS.
    ------------------------------------------------
                                                   Max.-Head-Change                        Max.-Flux-Residual
  Residual-Control   Outer-Iter.   Inner-Iter.     Column Row Layer    Max.-Head-Change    Column Row Layer    Max.-Flux-Residual            L2-New               L2-Old           Solver-Max-Delh
          0                 1           5             8    5     1      -0.2096651000E-02       7    5    1      -0.2041475280E+01      0.5587685009E+01      0.6035872889E-01     -0.2096651000E-02
          0                 2           4             8    5     1       0.1809074427E-03       7    5    1       0.2038213227E+00      0.5678568355E+00      0.5587685009E+01      0.1809074427E-03
          0                 3           2             8    5     1       0.9020999072E-05       7    5    1       0.1052617113E-01      0.3218772624E-01      0.5678568355E+00      0.9020999072E-05

    ------------------------------------------------
       NWT REQUIRED            3 OUTER ITERATIONS 
       AND A TOTAL OF         11 INNER ITERATIONS.
    ------------------------------------------------
                                                   Max.-Head-Change                        Max.-Flux-Residual
  Residual-Control   Outer-Iter.   Inner-Iter.     Column Row Layer    Max.-Head-Change    Column Row Layer    Max.-Flux-Residual            L2-New               L2-Old           Solver-Max-Delh
          0                 1           4             7    5     1      -0.9151474181E-03       7    9    1      -0.1152108050E+01      0.2802413778E+01      0.3218772624E-01     -0.9151474181E-03
          0                 2           3             7    5     1       0.7875610010E-04       7    9    1       0.1151101803E+00      0.2850566214E+00      0.2802413778E+01      0.7875610010E-04

    ------------------------------------------------
       NWT REQUIRED            2 OUTER ITERATIONS 
       AND A TOTAL OF          7 INNER ITERATIONS.
    ------------------------------------------------
                                                   Max.-Head-Change                        Max.-Flux-Residual
  Residual-Control   Outer-Iter.   Inner-Iter.     Column Row Layer    Max.-Head-Change    Column Row Layer    Max.-Flux-Residual            L2-New               L2-Old           Solver-Max-Delh
          0                 1           4             9    9     1       0.3825579567E-03       9    9    1       0.7599503787E+00      0.1324052396E+01      0.2850566214E+00      0.3825579567E-03
          0                 2           3             9    9     2      -0.3287136143E-04       9    9    1      -0.7537703327E-01      0.1334528989E+00      0.1324052396E+01     -0.3287136143E-04

    ------------------------------------------------
       NWT REQUIRED            2 OUTER ITERATIONS 
       AND A TOTAL OF          7 INNER ITERATIONS.
    ------------------------------------------------
                                                   Max.-Head-Change                        Max.-Flux-Residual
  Residual-Control   Outer-Iter.   Inner-Iter.     Column Row Layer    Max.-Head-Change    Column Row Layer    Max.-Flux-Residual            L2-New               L2-Old           Solver-Max-Delh
          0                 1           3             9    9     1       0.1774945313E-03       9    9    1       0.3439493268E+00      0.5763398667E+00      0.1334528989E+00      0.1774945313E-03
          0                 2           2             9    9     1      -0.1545508925E-04       9    9    1      -0.3425062011E-01      0.5904141370E-01      0.5763398667E+00     -0.1545508925E-04

    ------------------------------------------------
       NWT REQUIRED            2 OUTER ITERATIONS 
       AND A TOTAL OF          5 INNER ITERATIONS.
    ------------------------------------------------

 OUTPUT CONTROL FOR STRESS PERIOD     12   TIME STEP     2
    PRINT BUDGET
    SAVE HEAD FOR ALL LAYERS
    SAVE BUDGET
 UBDSV1 SAVING "         STORAGE" ON UNIT  70 AT TIME STEP    2, STRESS PERIOD  12
 UBDSV2 SAVING "   CONSTANT HEAD" ON UNIT  70 AT TIME STEP    2, STRESS PERIOD  12
 UBDSV1 SAVING "FLOW RIGHT FACE " ON UNIT  70 AT TIME STEP    2, STRESS PERIOD  12
 UBDSV1 SAVING "FLOW FRONT FACE " ON UNIT  70 AT TIME STEP    2, STRESS PERIOD  12
 UBDSV1 SAVING "FLOW LOWER FACE " ON UNIT  70 AT TIME STEP    2, STRESS PERIOD  12
 UBDSV4 SAVING " HEAD DEP BOUNDS" ON UNIT  70 AT TIME STEP    2, STRESS PERIOD  12
 UBDSV4 SAVING "  STREAM LEAKAGE" ON UNIT  70 AT TIME STEP    2, STRESS PERIOD  12



 UBDSV4 SAVING "             MNW" ON UNIT  70 AT TIME STEP    2, STRESS PERIOD  12
 
 
 
 
 
 
 
 
 UBDSV3 SAVING "FARM  NET  RECH." ON UNIT  70 AT TIME STEP    2, STRESS PERIOD  12
 UBDSV4 SAVING " GHOST-NODE FLUX" ON UNIT  70 AT TIME STEP    2, STRESS PERIOD  12
 UBDSV4 SAVING " GHOST-NODE FLUX" ON UNIT  70 AT TIME STEP    2, STRESS PERIOD  12
 UBDSV4 SAVING " GHOST-NODE FLUX" ON UNIT  70 AT TIME STEP    2, STRESS PERIOD  12

 HEAD WILL BE SAVED ON UNIT   22 AT END OF TIME STEP     2, STRESS PERIOD     12
1
  VOLUMETRIC BUDGET FOR ENTIRE MODEL AT END OF TIME STEP    2 IN STRESS PERIOD     12
  ------------------------------------------------------------------------------

     CUMULATIVE VOLUMES      L**3       RATES FOR THIS TIME STEP      L**3/T
     ------------------                 ------------------------

           IN:                                      IN:
           ---                                      ---
             STORAGE =    12346808.0000               STORAGE =           0.0000
       CONSTANT HEAD =           0.0000         CONSTANT HEAD =           0.0000
     HEAD DEP BOUNDS =     2668368.0000       HEAD DEP BOUNDS =        7738.6128
      STREAM LEAKAGE =     6809451.0000        STREAM LEAKAGE =       17672.0762
                 MNW =       25007.0371                   MNW =         112.4187
          FARM WELLS =           0.0000            FARM WELLS =           0.0000
    FARM  NET  RECH. =     7266626.5000      FARM  NET  RECH. =       34854.0977
     GHOST-NODE FLUX =     1945091.0000       GHOST-NODE FLUX =        6992.6807

            TOTAL IN =    31061352.0000              TOTAL IN =       67369.8828

          OUT:                                     OUT:
          ----                                     ----
             STORAGE =     5556601.5000               STORAGE =       42406.1094
       CONSTANT HEAD =           0.0000         CONSTANT HEAD =           0.0000
     HEAD DEP BOUNDS =     6207310.5000       HEAD DEP BOUNDS =       16999.9316
      STREAM LEAKAGE =      373188.0625        STREAM LEAKAGE =        1713.2596
                 MNW =     3015377.7500                   MNW =         112.4187
          FARM WELLS =     3852822.5000            FARM WELLS =           0.0000
    FARM  NET  RECH. =     1235956.8750      FARM  NET  RECH. =         203.3339
     GHOST-NODE FLUX =    10820099.0000       GHOST-NODE FLUX =        5934.8379

           TOTAL OUT =    31061356.0000             TOTAL OUT =       67369.8828

            IN - OUT =          -4.0000              IN - OUT =           0.0000

 PERCENT DISCREPANCY =          -0.00     PERCENT DISCREPANCY =           0.00






          TIME SUMMARY AT END OF TIME STEP     2 IN STRESS PERIOD     12
                    SECONDS     MINUTES      HOURS       DAYS        YEARS
                    -----------------------------------------------------------
   TIME STEP LENGTH 1.31414E+06  21902.      365.04      15.210     4.16427E-02
 STRESS PERIOD TIME 2.62829E+06  43805.      730.08      30.420     8.32854E-02
         TOTAL TIME 3.15395E+07 5.25658E+05  8761.0      365.04     0.99942    
1
1
                            STRESS PERIOD NO.     13, LENGTH =   30.42000    
                            -----------------------------------------------

                              NUMBER OF TIME STEPS =     2

                               MULTIPLIER FOR DELT =     1.000

                            INITIAL TIME STEP SIZE =   15.21000    

 REUSING NON-PARAMETER GHB CELLS FROM LAST STRESS PERIOD

     92 GHB CELLS



 CLASSIFICATION & COUNT OF STREAM SEGMENTS BASED ON SOURCE OF INFLOW:

                HEADWATER     DIVERSION     RECEIVES TRIBUTARY FLOW
                ---------     ---------     -----------------------
                     3              2               8




 SLOPE FOR SEGMENT AND REACH      2     1IS LESS THAN 1.0E-07: SETTING SLOPE TO 1.0E-06  1.0000E-06
 SLOPE FOR SEGMENT AND REACH      2     2IS LESS THAN 1.0E-07: SETTING SLOPE TO 1.0E-06  1.0000E-06
 SLOPE FOR SEGMENT AND REACH      2     3IS LESS THAN 1.0E-07: SETTING SLOPE TO 1.0E-06  1.0000E-06
 SLOPE FOR SEGMENT AND REACH      2     4IS LESS THAN 1.0E-07: SETTING SLOPE TO 1.0E-06  1.0000E-06
 SLOPE FOR SEGMENT AND REACH      2     5IS LESS THAN 1.0E-07: SETTING SLOPE TO 1.0E-06  1.0000E-06
 SLOPE FOR SEGMENT AND REACH      2     6IS LESS THAN 1.0E-07: SETTING SLOPE TO 1.0E-06  1.0000E-06
 SLOPE FOR SEGMENT AND REACH      2     7IS LESS THAN 1.0E-07: SETTING SLOPE TO 1.0E-06  1.0000E-06
 SLOPE FOR SEGMENT AND REACH      2     8IS LESS THAN 1.0E-07: SETTING SLOPE TO 1.0E-06  1.0000E-06
 SLOPE FOR SEGMENT AND REACH      2     9IS LESS THAN 1.0E-07: SETTING SLOPE TO 1.0E-06  1.0000E-06
 SLOPE FOR SEGMENT AND REACH      2    10IS LESS THAN 1.0E-07: SETTING SLOPE TO 1.0E-06  1.0000E-06
 SLOPE FOR SEGMENT AND REACH      6     1IS LESS THAN 1.0E-07: SETTING SLOPE TO 1.0E-06  1.0000E-06
 SLOPE FOR SEGMENT AND REACH      6     2IS LESS THAN 1.0E-07: SETTING SLOPE TO 1.0E-06  1.0000E-06
 SLOPE FOR SEGMENT AND REACH      6     3IS LESS THAN 1.0E-07: SETTING SLOPE TO 1.0E-06  1.0000E-06
 SLOPE FOR SEGMENT AND REACH      6     4IS LESS THAN 1.0E-07: SETTING SLOPE TO 1.0E-06  1.0000E-06
 SLOPE FOR SEGMENT AND REACH      6     5IS LESS THAN 1.0E-07: SETTING SLOPE TO 1.0E-06  1.0000E-06
 SLOPE FOR SEGMENT AND REACH      6     6IS LESS THAN 1.0E-07: SETTING SLOPE TO 1.0E-06  1.0000E-06
 SLOPE FOR SEGMENT AND REACH      6     7IS LESS THAN 1.0E-07: SETTING SLOPE TO 1.0E-06  1.0000E-06




 REUSING MNW7  FROM LAST STRESS PERIOD

 Parameter:  WELLS1
 WELL NO. LAYER    ROW    COL  F-WELL ID    FARM ID         QMAX         QMAXRESET       
 ----------------------------------------------------------------------------------------
       1      1      5      6          1          1      5.0000E+03              0
       2      1      8      7          2          1      5.0000E+03              0
       3      1      8      9          3          1      5.0000E+03              0
       4      1      5      9          4          2      3.0000E+03              0
       5      1      6     10          5          2      2.0000E+03              0
       6      1      7     11          6          2      1.0000E+03              0
       7      1     18      3          7          3      2.0000E+03              0
       8      1     21      3          8          3      4.0000E+03              0
       9      1     18     19          9          4      3.0000E+03              0
      10      1     21     19         10          4      5.0000E+03              0
      11      0      6      2        -11          5      5.0000E+03              1
      12      0      8      2        -12          5      5.0000E+03              1
      13      0     10      2        -13          5      5.0000E+03              1
      14      0      3     19        -14          6      1.0000E+04              1
      15      0      6     17        -15          6      6.0000E+03              1

 NUMBER OF ACTIVE FARM WELLS:       15

 THE SINGLE LAYER FMP- OR MNW- WELL IN ROW      8 AND COLUMN      7 IS LOCATED IN AN INACTIVE CELL (IBOUND=0) AND HAS BEEN EXCLUDED FROM THE TOTAL MAXIMUM CAPACITY PER FARM

 THE SINGLE LAYER FMP- OR MNW- WELL IN ROW      8 AND COLUMN      9 IS LOCATED IN AN INACTIVE CELL (IBOUND=0) AND HAS BEEN EXCLUDED FROM THE TOTAL MAXIMUM CAPACITY PER FARM

 THE SINGLE LAYER FMP- OR MNW- WELL IN ROW      6 AND COLUMN     10 IS LOCATED IN AN INACTIVE CELL (IBOUND=0) AND HAS BEEN EXCLUDED FROM THE TOTAL MAXIMUM CAPACITY PER FARM

 THE SINGLE LAYER FMP- OR MNW- WELL IN ROW      7 AND COLUMN     11 IS LOCATED IN AN INACTIVE CELL (IBOUND=0) AND HAS BEEN EXCLUDED FROM THE TOTAL MAXIMUM CAPACITY PER FARM

 FARM-ID  NUMBER OF WELLS PER FARM  TOTAL MAX.CAPACITY PER FARM
       1                         1                    5000.0000
       2                         1                    3000.0000
       3                         2                    6000.0000
       4                         2                    8000.0000
       5                         3                   15000.0000
       6                         2                   16000.0000
       7                         0                       0.0000
       8                         0                       0.0000

 READING LIST ON UNIT   20 WITH FILE NAME: C:\MF_OWHM_Release_Package\MF_OWHM_v1_0\examples\test-run-owhm-lgr\fmp-lgr-nwt\DATA_FMP\OFE.in
 LIST SCALING FACTOR= 0.70000    
 (THE SCALE FACTOR WAS APPLIED TO FIELDS   2 -   7)

 Reading list on unit   30

 Reading list on unit   40

  REF. EVAPOTRANSPIRATION =  9.100000E-04

 READING LIST ON UNIT   50 WITH FILE NAME: C:\MF_OWHM_Release_Package\MF_OWHM_v1_0\examples\test-run-owhm-lgr\fmp-lgr-nwt\DATA_FMP\FTE.in

Transpiratory and Evaporative Fractions of Crop Consumptive Use
    % Transpiration % Evap. for Precip. % Evap. for Irrig.
    1          0.000          1.000          0.500
    2          0.822          0.178          0.158
    3          0.957          0.043          0.043
    4          0.125          0.875          0.875
    5          0.777          0.223          0.000
    6          0.200          0.800          0.000

 READING LIST ON UNIT   60 WITH FILE NAME: C:\MF_OWHM_Release_Package\MF_OWHM_v1_0\examples\test-run-owhm-lgr\fmp-lgr-nwt\DATA_FMP\INEFFSW.in

FRACTIONS OF IN-EFFICIENT LOSSES TO SW-RUNOFF FROM 
     PRECIPITATION:  IRRIGATION:
    1          0.500          0.600
    2          0.400          0.300
    3          0.600          0.500
    4          0.700          0.600
    5          0.840          0.000
    6          0.740          0.000

       PRECIPITATION FLUX =  2.070000E-03

 OPENING FILE WITH FILENAME: ./DATA_FMP/NRDV.in
 AND UNIT NUMBER: -159
 READING SCALE FACTOR LIST ON UNIT   80 ASSOCIATED WITH FILE: C:\MF_OWHM_Release_Package\MF_OWHM_v1_0\examples\test-run-owhm-lgr\fmp-lgr-nwt\DATA_FMP\NRDV.in
 FIELD     SCALE FACTOR
     1       1.0000    
     2       1.0000    
     3       1.0000    
     4       1.0000    

UNRANKED LIST OF NON-ROUTED DELIVERIES TO FARMS [L3]:
TYPE:             1

FARM-ID  VOLUME:
      1   1.500E+04
      2   1.500E+04
      3   2.000E+04
      4   1.000E+04
      5   1.000E+04
      6   2.000E+04
      7   0.000E+00
      8   0.000E+00

FARM-ID  PRIORITY RANK OF NRD-TYPE:
      1           1
      2           1
      3           1
      4           1
      5           1
      6           1
      7           1
      8           1

FARM-ID  USE-FLAG:
         0 = SUFFICIENT USE
         1 = ABSOLUTE USE (RECHARGE SURPLUS BACK INTO CANAL)
         2 = ABSOLUTE USE (INJECT SURPLUS INTO FARM-WELLS)
      1           0
      2           0
      3           0
      4           0
      5           0
      6           0
      7           0
      8           0

LIST OF NON-ROUTED DELIVERIES IN RANKED SEQUENCE [L3/T]:

FARM-ID  RATE:
      1   4.931E+02
      2   4.931E+02
      3   6.575E+02
      4   3.287E+02
      5   3.287E+02
      6   6.575E+02
      7   0.000E+00
      8   0.000E+00

FARM-ID  USE-FLAG:
         0 = SUFFICIENT USE
         1 = ABSOLUTE USE (RECHARGE SURPLUS BACK INTO CANAL)
         2 = ABSOLUTE USE (INJECT SURPLUS INTO FARM-WELLS)
      1           0
      2           0
      3           0
      4           0
      5           0
      6           0
      7           0
      8           0

SURFACE-WATER FARM ALLOTMENT HEIGHT [L]:   0.000
 
 SOLVING FOR HEAD 
                                                   Max.-Head-Change                        Max.-Flux-Residual
  Residual-Control   Outer-Iter.   Inner-Iter.     Column Row Layer    Max.-Head-Change    Column Row Layer    Max.-Flux-Residual            L2-New               L2-Old           Solver-Max-Delh
          0                 1           8             8   10     1      -0.9322489494E+00       8   10    1      -0.1207251009E+04      0.2549466051E+04      0.5904141370E-01     -0.9322489494E+00
          1                 1           0             8   10     1      -0.6525742535E+00       8   10    1       0.1908623077E+04      0.4085996111E+04      0.2549466051E+04     -0.9322489494E+00
          2                 1           0             8   10     1      -0.4568019697E+00       8   10    1       0.1514561790E+04      0.3411123029E+04      0.4085996111E+04     -0.9322489494E+00
          3                 1           0             8   10     1      -0.3197613733E+00       8   10    1       0.1237954966E+04      0.2902840997E+04      0.3411123029E+04     -0.9322489494E+00
          0                 2           8             6    7     1       0.5671148154E+00       8   10    1       0.9720666953E+03      0.2542864931E+04      0.2902840997E+04      0.5671148154E+00
          0                 3           7             2    8     3       0.8533373514E-01       2    6    1       0.2016625074E+03      0.7033813585E+03      0.2542864931E+04      0.8533373514E-01
          0                 4           6             2    8     2       0.1385050669E-01      12   11    1       0.2437139796E+02      0.6562437284E+02      0.7033813585E+03      0.1385050669E-01
          0                 5           5             2    8     3       0.3047327552E-02       2    8    1       0.6239675504E+01      0.1446092192E+02      0.6562437284E+02      0.3047327552E-02
          0                 6           4             2    8     3       0.5647213825E-03       3    7    1       0.1262406484E+01      0.3431564446E+01      0.1446092192E+02      0.5647213825E-03
          0                 7           4             3    7     1       0.1391163597E-03       3    7    1       0.3482392180E+00      0.9211608020E+00      0.3431564446E+01      0.1391163597E-03
          0                 8           3             3    7     1       0.3259669163E-04       3    7    1       0.8260501007E-01      0.2171112397E+00      0.9211608020E+00      0.3259669163E-04

    ------------------------------------------------
       NWT REQUIRED            8 OUTER ITERATIONS 
       AND A TOTAL OF         45 INNER ITERATIONS.
    ------------------------------------------------
                                                   Max.-Head-Change                        Max.-Flux-Residual
  Residual-Control   Outer-Iter.   Inner-Iter.     Column Row Layer    Max.-Head-Change    Column Row Layer    Max.-Flux-Residual            L2-New               L2-Old           Solver-Max-Delh
          0                 1           6             9    9     2       0.7452147855E-01       9    9    1       0.7719094311E+02      0.1476568663E+03      0.2171112397E+00      0.7452147855E-01
          0                 2           5             9    9     2      -0.6243857942E-02      12   11    1       0.2079697753E+02      0.3587072991E+02      0.1476568663E+03     -0.6243857942E-02
          0                 3           4            12   12     1       0.4200875063E-03      12   11    1       0.2364584639E+01      0.3996175667E+01      0.3587072991E+02      0.4200875063E-03
          0                 4           2            12   12     1       0.3786460047E-04      12   11    1       0.1654839795E+00      0.2673100428E+00      0.3996175667E+01      0.3786460047E-04

    ------------------------------------------------
       NWT REQUIRED            4 OUTER ITERATIONS 
       AND A TOTAL OF         17 INNER ITERATIONS.
    ------------------------------------------------
                                                   Max.-Head-Change                        Max.-Flux-Residual
  Residual-Control   Outer-Iter.   Inner-Iter.     Column Row Layer    Max.-Head-Change    Column Row Layer    Max.-Flux-Residual            L2-New               L2-Old           Solver-Max-Delh
          0                 1           6             6    7     1      -0.1755748396E-01       8    9    1       0.2172497899E+02      0.5563111232E+02      0.2673100428E+00     -0.1755748396E-01
          0                 2           5            12   11     1      -0.1329727155E-01      12   11    1      -0.3792747352E+02      0.6081257722E+02      0.5563111232E+02     -0.1329727155E-01
          0                 3           4            12   11     1       0.1025442093E-02      12   11    1       0.3448999051E+01      0.5801242382E+01      0.6081257722E+02      0.1025442093E-02
          0                 4           2            12   12     1       0.2794156094E-04      12   12    1       0.9282500984E-01      0.1974233269E+00      0.5801242382E+01      0.2794156094E-04

    ------------------------------------------------
       NWT REQUIRED            4 OUTER ITERATIONS 
       AND A TOTAL OF         17 INNER ITERATIONS.
    ------------------------------------------------
                                                   Max.-Head-Change                        Max.-Flux-Residual
  Residual-Control   Outer-Iter.   Inner-Iter.     Column Row Layer    Max.-Head-Change    Column Row Layer    Max.-Flux-Residual            L2-New               L2-Old           Solver-Max-Delh
          0                 1           6             9    9     3      -0.1773971191E-01       6    7    1      -0.1659720397E+02      0.4206958377E+02      0.1974233269E+00     -0.1773971191E-01
          0                 2           5             9    9     3       0.1530824887E-02       6    7    1       0.1657958913E+01      0.4298136711E+01      0.4206958377E+02      0.1530824887E-02
          0                 3           3             9    9     3       0.7705332615E-04       6    7    1       0.8300592413E-01      0.2269330776E+00      0.4298136711E+01      0.7705332615E-04

    ------------------------------------------------
       NWT REQUIRED            3 OUTER ITERATIONS 
       AND A TOTAL OF         14 INNER ITERATIONS.
    ------------------------------------------------
                                                   Max.-Head-Change                        Max.-Flux-Residual
  Residual-Control   Outer-Iter.   Inner-Iter.     Column Row Layer    Max.-Head-Change    Column Row Layer    Max.-Flux-Residual            L2-New               L2-Old           Solver-Max-Delh
          0                 1           6             9    9     3      -0.1359054821E-01       9    9    1      -0.1448940363E+02      0.2967853978E+02      0.2269330776E+00     -0.1359054821E-01
          0                 2           4             9    9     3       0.1167141436E-02       9    9    1       0.1448329686E+01      0.2957148800E+01      0.2967853978E+02      0.1167141436E-02
          0                 3           3             9    9     3       0.5906343485E-04       9    9    1       0.7218259032E-01      0.1547623661E+00      0.2957148800E+01      0.5906343485E-04

    ------------------------------------------------
       NWT REQUIRED            3 OUTER ITERATIONS 
       AND A TOTAL OF         13 INNER ITERATIONS.
    ------------------------------------------------
                                                   Max.-Head-Change                        Max.-Flux-Residual
  Residual-Control   Outer-Iter.   Inner-Iter.     Column Row Layer    Max.-Head-Change    Column Row Layer    Max.-Flux-Residual            L2-New               L2-Old           Solver-Max-Delh
          0                 1           5             9    9     2      -0.7479467415E-02       9    9    1      -0.7847863335E+01      0.1716652015E+02      0.1547623661E+00     -0.7479467415E-02
          0                 2           4             9    9     2       0.6311254768E-03       9    9    1       0.7844884602E+00      0.1719818281E+01      0.1716652015E+02      0.6311254768E-03
          0                 3           3             9    9     2       0.3273800596E-04       9    9    1       0.3918621497E-01      0.9108381296E-01      0.1719818281E+01      0.3273800596E-04

    ------------------------------------------------
       NWT REQUIRED            3 OUTER ITERATIONS 
       AND A TOTAL OF         12 INNER ITERATIONS.
    ------------------------------------------------
                                                   Max.-Head-Change                        Max.-Flux-Residual
  Residual-Control   Outer-Iter.   Inner-Iter.     Column Row Layer    Max.-Head-Change    Column Row Layer    Max.-Flux-Residual            L2-New               L2-Old           Solver-Max-Delh
          0                 1           5             8    5     1      -0.3276364741E-02       7    5    1      -0.3073535297E+01      0.8653036559E+01      0.9108381296E-01     -0.3276364741E-02
          0                 2           4             8    5     1       0.2829489549E-03       7    5    1       0.3071459090E+00      0.8800386329E+00      0.8653036559E+01      0.2829489549E-03
          0                 3           2             8    5     2       0.1401896619E-04       7    5    1       0.1556849206E-01      0.4667892675E-01      0.8800386329E+00      0.1401896619E-04

    ------------------------------------------------
       NWT REQUIRED            3 OUTER ITERATIONS 
       AND A TOTAL OF         11 INNER ITERATIONS.
    ------------------------------------------------
                                                   Max.-Head-Change                        Max.-Flux-Residual
  Residual-Control   Outer-Iter.   Inner-Iter.     Column Row Layer    Max.-Head-Change    Column Row Layer    Max.-Flux-Residual            L2-New               L2-Old           Solver-Max-Delh
          0                 1           5             7    5     1      -0.1505767732E-02       7    9    1      -0.1726861135E+01      0.4129803841E+01      0.4667892675E-01     -0.1505767732E-02
          0                 2           3             7    5     1       0.1298508496E-03       7    9    1       0.1727138791E+00      0.4253140060E+00      0.4129803841E+01      0.1298508496E-03
          0                 3           2             7    5     1       0.6697139711E-05       7    9    1       0.8854782209E-02      0.2399136708E-01      0.4253140060E+00      0.6697139711E-05

    ------------------------------------------------
       NWT REQUIRED            3 OUTER ITERATIONS 
       AND A TOTAL OF         10 INNER ITERATIONS.
    ------------------------------------------------
                                                   Max.-Head-Change                        Max.-Flux-Residual
  Residual-Control   Outer-Iter.   Inner-Iter.     Column Row Layer    Max.-Head-Change    Column Row Layer    Max.-Flux-Residual            L2-New               L2-Old           Solver-Max-Delh
          0                 1           4             7    9     1      -0.6548764277E-03       7    9    1      -0.1024956171E+01      0.2025440713E+01      0.2399136708E-01     -0.6548764277E-03
          0                 2           3             7    9     1       0.5544197542E-04       7    9    1       0.1019598082E+00      0.2092096845E+00      0.2025440713E+01      0.5544197542E-04

    ------------------------------------------------
       NWT REQUIRED            2 OUTER ITERATIONS 
       AND A TOTAL OF          7 INNER ITERATIONS.
    ------------------------------------------------
                                                   Max.-Head-Change                        Max.-Flux-Residual
  Residual-Control   Outer-Iter.   Inner-Iter.     Column Row Layer    Max.-Head-Change    Column Row Layer    Max.-Flux-Residual            L2-New               L2-Old           Solver-Max-Delh
          0                 1           4             7    9     1      -0.2949051502E-03       9    9    1       0.5416858979E+00      0.9910594345E+00      0.2092096845E+00     -0.2949051502E-03
          0                 2           2             9    9     2      -0.2551589888E-04       9    9    1      -0.5403655150E-01      0.1018602658E+00      0.9910594345E+00     -0.2551589888E-04

    ------------------------------------------------
       NWT REQUIRED            2 OUTER ITERATIONS 
       AND A TOTAL OF          6 INNER ITERATIONS.
    ------------------------------------------------

 OUTPUT CONTROL FOR STRESS PERIOD     13   TIME STEP     1
    SAVE BUDGET
 UBDSV1 SAVING "         STORAGE" ON UNIT  70 AT TIME STEP    1, STRESS PERIOD  13
 UBDSV2 SAVING "   CONSTANT HEAD" ON UNIT  70 AT TIME STEP    1, STRESS PERIOD  13
 UBDSV1 SAVING "FLOW RIGHT FACE " ON UNIT  70 AT TIME STEP    1, STRESS PERIOD  13
 UBDSV1 SAVING "FLOW FRONT FACE " ON UNIT  70 AT TIME STEP    1, STRESS PERIOD  13
 UBDSV1 SAVING "FLOW LOWER FACE " ON UNIT  70 AT TIME STEP    1, STRESS PERIOD  13
 UBDSV4 SAVING " HEAD DEP BOUNDS" ON UNIT  70 AT TIME STEP    1, STRESS PERIOD  13
 UBDSV4 SAVING "  STREAM LEAKAGE" ON UNIT  70 AT TIME STEP    1, STRESS PERIOD  13



 UBDSV4 SAVING "             MNW" ON UNIT  70 AT TIME STEP    1, STRESS PERIOD  13
 
 
 
 
 
 
 
 
 UBDSV3 SAVING "FARM  NET  RECH." ON UNIT  70 AT TIME STEP    1, STRESS PERIOD  13
 UBDSV4 SAVING " GHOST-NODE FLUX" ON UNIT  70 AT TIME STEP    1, STRESS PERIOD  13
 UBDSV4 SAVING " GHOST-NODE FLUX" ON UNIT  70 AT TIME STEP    1, STRESS PERIOD  13
 UBDSV4 SAVING " GHOST-NODE FLUX" ON UNIT  70 AT TIME STEP    1, STRESS PERIOD  13
 
 SOLVING FOR HEAD 
                                                   Max.-Head-Change                        Max.-Flux-Residual
  Residual-Control   Outer-Iter.   Inner-Iter.     Column Row Layer    Max.-Head-Change    Column Row Layer    Max.-Flux-Residual            L2-New               L2-Old           Solver-Max-Delh
          0                 1           8             4    6     1       0.5070901967E+00       4    7    1       0.1773875193E+03      0.1918846063E+04      0.1018602658E+00      0.5070901967E+00
          0                 2           7             5    6     1      -0.4269266686E-01      12   12    1       0.3321480852E+02      0.2021102058E+03      0.1918846063E+04     -0.4269266686E-01
          0                 3           6             2    8     3      -0.1035084215E-01       2    6    1      -0.2153530177E+02      0.3882391955E+02      0.2021102058E+03     -0.1035084215E-01
          0                 4           5             2    8     3      -0.3392100173E-02       2    8    1      -0.7433647531E+01      0.1266059926E+02      0.3882391955E+02     -0.3392100173E-02
          0                 5           4             2    8     3      -0.1060700782E-02       2    8    1      -0.2368578568E+01      0.3818534133E+01      0.1266059926E+02     -0.1060700782E-02
          0                 6           4             2    8     3      -0.3283300051E-03       2    8    1      -0.7389922774E+00      0.1164966933E+01      0.3818534133E+01     -0.3283300051E-03
          0                 7           3             2    8     3      -0.1009122666E-03       2    8    1      -0.2288563598E+00      0.3552662548E+00      0.1164966933E+01     -0.1009122666E-03
          0                 8           2             2    8     3      -0.3067155714E-04       2    8    1      -0.7084235293E-01      0.1088983750E+00      0.3552662548E+00     -0.3067155714E-04

    ------------------------------------------------
       NWT REQUIRED            8 OUTER ITERATIONS 
       AND A TOTAL OF         39 INNER ITERATIONS.
    ------------------------------------------------
                                                   Max.-Head-Change                        Max.-Flux-Residual
  Residual-Control   Outer-Iter.   Inner-Iter.     Column Row Layer    Max.-Head-Change    Column Row Layer    Max.-Flux-Residual            L2-New               L2-Old           Solver-Max-Delh
          0                 1           6             9    9     2       0.6436536120E-01       9    9    1       0.6433477421E+02      0.1288828519E+03      0.1088983750E+00      0.6436536120E-01
          0                 2           5            12   11     1      -0.1366843617E-01      12   11    1      -0.3820868357E+02      0.6257415577E+02      0.1288828519E+03     -0.1366843617E-01
          0                 3           4            12   11     1       0.1075648365E-02      12   11    1       0.4371621960E+01      0.7598788849E+01      0.6257415577E+02      0.1075648365E-02
          0                 4           3            12   11     2      -0.3079905317E-04      12   12    1       0.1347964228E+00      0.2812268360E+00      0.7598788849E+01     -0.3079905317E-04

    ------------------------------------------------
       NWT REQUIRED            4 OUTER ITERATIONS 
       AND A TOTAL OF         18 INNER ITERATIONS.
    ------------------------------------------------
                                                   Max.-Head-Change                        Max.-Flux-Residual
  Residual-Control   Outer-Iter.   Inner-Iter.     Column Row Layer    Max.-Head-Change    Column Row Layer    Max.-Flux-Residual            L2-New               L2-Old           Solver-Max-Delh
          0                 1           6             8    9     1       0.1545717430E-01       8    9    1       0.1939953463E+02      0.4614228367E+02      0.2812268360E+00      0.1545717430E-01
          1                 1           0             8    9     1       0.1082002182E-01      12   11    1      -0.3765306280E+02      0.6023057306E+02      0.4614228367E+02      0.1545717430E-01
          0                 2           5            12   11     1      -0.1374564178E-01      12   11    1      -0.3768801826E+02      0.6269854550E+02      0.6023057306E+02     -0.1374564178E-01
          0                 3           4            12   11     1       0.1082782395E-02      12   11    1       0.3483714442E+01      0.5872481869E+01      0.6269854550E+02      0.1082782395E-02
          0                 4           2            12   12     1       0.2478561123E-04      12   12    1       0.8138847945E-01      0.1705095214E+00      0.5872481869E+01      0.2478561123E-04

    ------------------------------------------------
       NWT REQUIRED            4 OUTER ITERATIONS 
       AND A TOTAL OF         17 INNER ITERATIONS.
    ------------------------------------------------
                                                   Max.-Head-Change                        Max.-Flux-Residual
  Residual-Control   Outer-Iter.   Inner-Iter.     Column Row Layer    Max.-Head-Change    Column Row Layer    Max.-Flux-Residual            L2-New               L2-Old           Solver-Max-Delh
          0                 1           6             9    9     3      -0.1561228402E-01      10    5    1      -0.1286900997E+02      0.3501862576E+02      0.1705095214E+00     -0.1561228402E-01
          0                 2           5             9    9     3       0.1347968510E-02      10    5    1       0.1285465039E+01      0.3563383293E+01      0.3501862576E+02      0.1347968510E-02
          0                 3           3             9    9     3       0.6772358087E-04      10    5    1       0.6402248066E-01      0.1860454903E+00      0.3563383293E+01      0.6772358087E-04

    ------------------------------------------------
       NWT REQUIRED            3 OUTER ITERATIONS 
       AND A TOTAL OF         14 INNER ITERATIONS.
    ------------------------------------------------
                                                   Max.-Head-Change                        Max.-Flux-Residual
  Residual-Control   Outer-Iter.   Inner-Iter.     Column Row Layer    Max.-Head-Change    Column Row Layer    Max.-Flux-Residual            L2-New               L2-Old           Solver-Max-Delh
          0                 1           6             9    9     3      -0.1244061417E-01       9    9    1      -0.1151638758E+02      0.2540294144E+02      0.1860454903E+00     -0.1244061417E-01
          0                 2           4             9    9     3       0.1069452330E-02       9    9    1       0.1151179162E+01      0.2528982587E+01      0.2540294144E+02      0.1069452330E-02
          0                 3           3             9    9     3       0.5399941628E-04       9    9    1       0.5705074203E-01      0.1315960357E+00      0.2528982587E+01      0.5399941628E-04

    ------------------------------------------------
       NWT REQUIRED            3 OUTER ITERATIONS 
       AND A TOTAL OF         13 INNER ITERATIONS.
    ------------------------------------------------
                                                   Max.-Head-Change                        Max.-Flux-Residual
  Residual-Control   Outer-Iter.   Inner-Iter.     Column Row Layer    Max.-Head-Change    Column Row Layer    Max.-Flux-Residual            L2-New               L2-Old           Solver-Max-Delh
          0                 1           5             9    9     2      -0.6430887202E-02       9    9    1      -0.6428560990E+01      0.1499326182E+02      0.1315960357E+00     -0.6430887202E-02
          0                 2           4             9    9     2       0.5437797727E-03       9    9    1       0.6424216797E+00      0.1503636133E+01      0.1499326182E+02      0.5437797727E-03
          0                 3           3             9    9     2       0.2802331376E-04       9    9    1       0.3203845082E-01      0.7881875270E-01      0.1503636133E+01      0.2802331376E-04

    ------------------------------------------------
       NWT REQUIRED            3 OUTER ITERATIONS 
       AND A TOTAL OF         12 INNER ITERATIONS.
    ------------------------------------------------
                                                   Max.-Head-Change                        Max.-Flux-Residual
  Residual-Control   Outer-Iter.   Inner-Iter.     Column Row Layer    Max.-Head-Change    Column Row Layer    Max.-Flux-Residual            L2-New               L2-Old           Solver-Max-Delh
          0                 1           5             8    5     1      -0.2931930717E-02       7    5    1      -0.2527093714E+01      0.7696821125E+01      0.7881875270E-01     -0.2931930717E-02
          0                 2           4             8    5     1       0.2531909416E-03       7    5    1       0.2528605497E+00      0.7838248992E+00      0.7696821125E+01      0.2531909416E-03
          0                 3           2             8    5     1       0.1242286767E-04       7    5    1       0.1253408886E-01      0.4384372689E-01      0.7838248992E+00      0.1242286767E-04

    ------------------------------------------------
       NWT REQUIRED            3 OUTER ITERATIONS 
       AND A TOTAL OF         11 INNER ITERATIONS.
    ------------------------------------------------
                                                   Max.-Head-Change                        Max.-Flux-Residual
  Residual-Control   Outer-Iter.   Inner-Iter.     Column Row Layer    Max.-Head-Change    Column Row Layer    Max.-Flux-Residual            L2-New               L2-Old           Solver-Max-Delh
          0                 1           5             7    5     1      -0.1284345226E-02       7    9    1      -0.1498578952E+01      0.3707635624E+01      0.4384372689E-01     -0.1284345226E-02
          0                 2           3             7    5     1       0.1107189527E-03       7    9    1       0.1499326937E+00      0.3836115126E+00      0.3707635624E+01      0.1107189527E-03
          0                 3           2             7    5     1       0.5540440755E-05       7    9    1       0.7554774405E-02      0.2219542090E-01      0.3836115126E+00      0.5540440755E-05

    ------------------------------------------------
       NWT REQUIRED            3 OUTER ITERATIONS 
       AND A TOTAL OF         10 INNER ITERATIONS.
    ------------------------------------------------
                                                   Max.-Head-Change                        Max.-Flux-Residual
  Residual-Control   Outer-Iter.   Inner-Iter.     Column Row Layer    Max.-Head-Change    Column Row Layer    Max.-Flux-Residual            L2-New               L2-Old           Solver-Max-Delh
          0                 1           4             7    9     1      -0.5934314084E-03       7    9    1      -0.9056691359E+00      0.1810340289E+01      0.2219542090E-01     -0.5934314084E-03
          0                 2           3             7    9     1       0.5039592469E-04       7    9    1       0.9043871798E-01      0.1870239340E+00      0.1810340289E+01      0.5039592469E-04

    ------------------------------------------------
       NWT REQUIRED            2 OUTER ITERATIONS 
       AND A TOTAL OF          7 INNER ITERATIONS.
    ------------------------------------------------
                                                   Max.-Head-Change                        Max.-Flux-Residual
  Residual-Control   Outer-Iter.   Inner-Iter.     Column Row Layer    Max.-Head-Change    Column Row Layer    Max.-Flux-Residual            L2-New               L2-Old           Solver-Max-Delh
          0                 1           4             7    9     1      -0.2715090101E-03       7    9    1      -0.4658001545E+00      0.8870813527E+00      0.1870239340E+00     -0.2715090101E-03
          0                 2           2             7    9     1       0.2336192362E-04       7    9    1       0.4688947048E-01      0.9126029161E-01      0.8870813527E+00      0.2336192362E-04

    ------------------------------------------------
       NWT REQUIRED            2 OUTER ITERATIONS 
       AND A TOTAL OF          6 INNER ITERATIONS.
    ------------------------------------------------

 OUTPUT CONTROL FOR STRESS PERIOD     13   TIME STEP     2
    SAVE BUDGET
 UBDSV1 SAVING "         STORAGE" ON UNIT  70 AT TIME STEP    2, STRESS PERIOD  13
 UBDSV2 SAVING "   CONSTANT HEAD" ON UNIT  70 AT TIME STEP    2, STRESS PERIOD  13
 UBDSV1 SAVING "FLOW RIGHT FACE " ON UNIT  70 AT TIME STEP    2, STRESS PERIOD  13
 UBDSV1 SAVING "FLOW FRONT FACE " ON UNIT  70 AT TIME STEP    2, STRESS PERIOD  13
 UBDSV1 SAVING "FLOW LOWER FACE " ON UNIT  70 AT TIME STEP    2, STRESS PERIOD  13
 UBDSV4 SAVING " HEAD DEP BOUNDS" ON UNIT  70 AT TIME STEP    2, STRESS PERIOD  13
 UBDSV4 SAVING "  STREAM LEAKAGE" ON UNIT  70 AT TIME STEP    2, STRESS PERIOD  13



 UBDSV4 SAVING "             MNW" ON UNIT  70 AT TIME STEP    2, STRESS PERIOD  13
 
 
 
 
 
 
 
 
 UBDSV3 SAVING "FARM  NET  RECH." ON UNIT  70 AT TIME STEP    2, STRESS PERIOD  13
 UBDSV4 SAVING " GHOST-NODE FLUX" ON UNIT  70 AT TIME STEP    2, STRESS PERIOD  13
 UBDSV4 SAVING " GHOST-NODE FLUX" ON UNIT  70 AT TIME STEP    2, STRESS PERIOD  13
 UBDSV4 SAVING " GHOST-NODE FLUX" ON UNIT  70 AT TIME STEP    2, STRESS PERIOD  13
1
  VOLUMETRIC BUDGET FOR ENTIRE MODEL AT END OF TIME STEP    2 IN STRESS PERIOD     13
  ------------------------------------------------------------------------------

     CUMULATIVE VOLUMES      L**3       RATES FOR THIS TIME STEP      L**3/T
     ------------------                 ------------------------

           IN:                                      IN:
           ---                                      ---
             STORAGE =    12346808.0000               STORAGE =           0.0000
       CONSTANT HEAD =           0.0000         CONSTANT HEAD =           0.0000
     HEAD DEP BOUNDS =     2890765.0000       HEAD DEP BOUNDS =        7173.2388
      STREAM LEAKAGE =     7239327.5000        STREAM LEAKAGE =       13423.9014
                 MNW =       28659.0645                   MNW =         121.8133
          FARM WELLS =           0.0000            FARM WELLS =           0.0000
    FARM  NET  RECH. =     8316103.0000      FARM  NET  RECH. =       34348.2070
     GHOST-NODE FLUX =     2161538.2500       GHOST-NODE FLUX =        7148.8340

            TOTAL IN =    32983202.0000              TOTAL IN =       62215.9922

          OUT:                                     OUT:
          ----                                     ----
             STORAGE =     6689324.0000               STORAGE =       36023.2578
       CONSTANT HEAD =           0.0000         CONSTANT HEAD =           0.0000
     HEAD DEP BOUNDS =     6733935.5000       HEAD DEP BOUNDS =       17408.4688
      STREAM LEAKAGE =      450963.0938        STREAM LEAKAGE =        2690.7107
                 MNW =     3019029.7500                   MNW =         121.8133
          FARM WELLS =     3852822.5000            FARM WELLS =           0.0000
    FARM  NET  RECH. =     1237524.0000      FARM  NET  RECH. =          62.8399
     GHOST-NODE FLUX =    10999605.0000       GHOST-NODE FLUX =        5908.8740

           TOTAL OUT =    32983204.0000             TOTAL OUT =       62215.9648

            IN - OUT =          -2.0000              IN - OUT =       2.7344E-02

 PERCENT DISCREPANCY =          -0.00     PERCENT DISCREPANCY =           0.00






          TIME SUMMARY AT END OF TIME STEP     2 IN STRESS PERIOD     13
                    SECONDS     MINUTES      HOURS       DAYS        YEARS
                    -----------------------------------------------------------
   TIME STEP LENGTH 1.31414E+06  21902.      365.04      15.210     4.16427E-02
 STRESS PERIOD TIME 2.62829E+06  43805.      730.08      30.420     8.32854E-02
         TOTAL TIME 3.41677E+07 5.69462E+05  9491.0      395.46      1.0827    
1
1
                            STRESS PERIOD NO.     14, LENGTH =   30.42000    
                            -----------------------------------------------

                              NUMBER OF TIME STEPS =     2

                               MULTIPLIER FOR DELT =     1.000

                            INITIAL TIME STEP SIZE =   15.21000    

 REUSING NON-PARAMETER GHB CELLS FROM LAST STRESS PERIOD

     92 GHB CELLS

 REUSING STREAM SEGMENT DATA FROM LAST STRESS PERIOD

 REUSING MNW7  FROM LAST STRESS PERIOD

 Parameter:  WELLS1
 WELL NO. LAYER    ROW    COL  F-WELL ID    FARM ID         QMAX         QMAXRESET       
 ----------------------------------------------------------------------------------------
       1      1      5      6          1          1      5.0000E+03              0
       2      1      8      7          2          1      5.0000E+03              0
       3      1      8      9          3          1      5.0000E+03              0
       4      1      5      9          4          2      3.0000E+03              0
       5      1      6     10          5          2      2.0000E+03              0
       6      1      7     11          6          2      1.0000E+03              0
       7      1     18      3          7          3      2.0000E+03              0
       8      1     21      3          8          3      4.0000E+03              0
       9      1     18     19          9          4      3.0000E+03              0
      10      1     21     19         10          4      5.0000E+03              0
      11      0      6      2        -11          5      5.0000E+03              1
      12      0      8      2        -12          5      5.0000E+03              1
      13      0     10      2        -13          5      5.0000E+03              1
      14      0      3     19        -14          6      1.0000E+04              1
      15      0      6     17        -15          6      6.0000E+03              1

 NUMBER OF ACTIVE FARM WELLS:       15

 THE SINGLE LAYER FMP- OR MNW- WELL IN ROW      8 AND COLUMN      7 IS LOCATED IN AN INACTIVE CELL (IBOUND=0) AND HAS BEEN EXCLUDED FROM THE TOTAL MAXIMUM CAPACITY PER FARM

 THE SINGLE LAYER FMP- OR MNW- WELL IN ROW      8 AND COLUMN      9 IS LOCATED IN AN INACTIVE CELL (IBOUND=0) AND HAS BEEN EXCLUDED FROM THE TOTAL MAXIMUM CAPACITY PER FARM

 THE SINGLE LAYER FMP- OR MNW- WELL IN ROW      6 AND COLUMN     10 IS LOCATED IN AN INACTIVE CELL (IBOUND=0) AND HAS BEEN EXCLUDED FROM THE TOTAL MAXIMUM CAPACITY PER FARM

 THE SINGLE LAYER FMP- OR MNW- WELL IN ROW      7 AND COLUMN     11 IS LOCATED IN AN INACTIVE CELL (IBOUND=0) AND HAS BEEN EXCLUDED FROM THE TOTAL MAXIMUM CAPACITY PER FARM

 FARM-ID  NUMBER OF WELLS PER FARM  TOTAL MAX.CAPACITY PER FARM
       1                         1                    5000.0000
       2                         1                    3000.0000
       3                         2                    6000.0000
       4                         2                    8000.0000
       5                         3                   15000.0000
       6                         2                   16000.0000
       7                         0                       0.0000
       8                         0                       0.0000

 READING LIST ON UNIT   20 WITH FILE NAME: C:\MF_OWHM_Release_Package\MF_OWHM_v1_0\examples\test-run-owhm-lgr\fmp-lgr-nwt\DATA_FMP\OFE.in
 LIST SCALING FACTOR= 0.80000    
 (THE SCALE FACTOR WAS APPLIED TO FIELDS   2 -   7)

 Reading list on unit   30

 Reading list on unit   40

  REF. EVAPOTRANSPIRATION =  1.500000E-03

 READING LIST ON UNIT   50 WITH FILE NAME: C:\MF_OWHM_Release_Package\MF_OWHM_v1_0\examples\test-run-owhm-lgr\fmp-lgr-nwt\DATA_FMP\FTE.in

Transpiratory and Evaporative Fractions of Crop Consumptive Use
    % Transpiration % Evap. for Precip. % Evap. for Irrig.
    1          0.000          1.000          0.500
    2          0.822          0.178          0.158
    3          0.845          0.155          0.155
    4          0.125          0.875          0.875
    5          0.783          0.217          0.000
    6          0.400          0.600          0.000

 READING LIST ON UNIT   60 WITH FILE NAME: C:\MF_OWHM_Release_Package\MF_OWHM_v1_0\examples\test-run-owhm-lgr\fmp-lgr-nwt\DATA_FMP\INEFFSW.in

FRACTIONS OF IN-EFFICIENT LOSSES TO SW-RUNOFF FROM 
     PRECIPITATION:  IRRIGATION:
    1          0.500          0.600
    2          0.400          0.300
    3          0.600          0.500
    4          0.700          0.600
    5          0.850          0.000
    6          0.750          0.000

       PRECIPITATION FLUX =  2.630000E-03

 OPENING FILE WITH FILENAME: ./DATA_FMP/NRDV.in
 AND UNIT NUMBER: -160
 READING SCALE FACTOR LIST ON UNIT   80 ASSOCIATED WITH FILE: C:\MF_OWHM_Release_Package\MF_OWHM_v1_0\examples\test-run-owhm-lgr\fmp-lgr-nwt\DATA_FMP\NRDV.in
 FIELD     SCALE FACTOR
     1       1.0000    
     2       2.0000    
     3       1.0000    
     4       1.0000    

UNRANKED LIST OF NON-ROUTED DELIVERIES TO FARMS [L3]:
TYPE:             1

FARM-ID  VOLUME:
      1   3.000E+04
      2   3.000E+04
      3   4.000E+04
      4   2.000E+04
      5   2.000E+04
      6   4.000E+04
      7   0.000E+00
      8   0.000E+00

FARM-ID  PRIORITY RANK OF NRD-TYPE:
      1           1
      2           1
      3           1
      4           1
      5           1
      6           1
      7           1
      8           1

FARM-ID  USE-FLAG:
         0 = SUFFICIENT USE
         1 = ABSOLUTE USE (RECHARGE SURPLUS BACK INTO CANAL)
         2 = ABSOLUTE USE (INJECT SURPLUS INTO FARM-WELLS)
      1           0
      2           0
      3           0
      4           0
      5           0
      6           0
      7           0
      8           0

LIST OF NON-ROUTED DELIVERIES IN RANKED SEQUENCE [L3/T]:

FARM-ID  RATE:
      1   9.862E+02
      2   9.862E+02
      3   1.315E+03
      4   6.575E+02
      5   6.575E+02
      6   1.315E+03
      7   0.000E+00
      8   0.000E+00

FARM-ID  USE-FLAG:
         0 = SUFFICIENT USE
         1 = ABSOLUTE USE (RECHARGE SURPLUS BACK INTO CANAL)
         2 = ABSOLUTE USE (INJECT SURPLUS INTO FARM-WELLS)
      1           0
      2           0
      3           0
      4           0
      5           0
      6           0
      7           0
      8           0

SURFACE-WATER FARM ALLOTMENT HEIGHT [L]:   0.000
 
 SOLVING FOR HEAD 
                                                   Max.-Head-Change                        Max.-Flux-Residual
  Residual-Control   Outer-Iter.   Inner-Iter.     Column Row Layer    Max.-Head-Change    Column Row Layer    Max.-Flux-Residual            L2-New               L2-Old           Solver-Max-Delh
          0                 1           8             8   10     1      -0.6957130893E+00       8   10    1      -0.8072137898E+03      0.1867319287E+04      0.9126029161E-01     -0.6957130893E+00
          1                 1           0             8   10     1      -0.4869991542E+00       8   10    1       0.1937998000E+04      0.4081035463E+04      0.1867319287E+04     -0.6957130893E+00
          2                 1           0             8   10     1      -0.3408994022E+00       8   10    1       0.1464546482E+04      0.3331297830E+04      0.4081035463E+04     -0.6957130893E+00
          3                 1           0             8   10     1      -0.2386295774E+00       8   10    1       0.1062747341E+04      0.2821563395E+04      0.3331297830E+04     -0.6957130893E+00
          4                 1           0             8   10     1      -0.1670407014E+00       8   10    1       0.7818087494E+03      0.2513526753E+04      0.2821563395E+04     -0.6957130893E+00
          5                 1           0             8   10     1      -0.1169284890E+00       8   10    1       0.5850325660E+03      0.2337700465E+04      0.2513526753E+04     -0.6957130893E+00
          6                 1           0             8   10     1      -0.8184994088E-01       8   10    1       0.4472214195E+03      0.2239106120E+04      0.2337700465E+04     -0.6957130893E+00
          7                 1           0             8   10     1      -0.5729495764E-01       9   10    1       0.3596354878E+03      0.2183862600E+04      0.2239106120E+04     -0.6957130893E+00
          8                 1           0             8   10     1      -0.4010646967E-01       9   10    1       0.3080760523E+03      0.2152504911E+04      0.2183862600E+04     -0.6957130893E+00
          9                 1           0             8   10     1      -0.2807452829E-01       9   10    1       0.2719805332E+03      0.2134308538E+04      0.2152504911E+04     -0.6957130893E+00
                                                   Max.-Head-Change                        Max.-Flux-Residual
  Residual-Control   Outer-Iter.   Inner-Iter.     Column Row Layer    Max.-Head-Change    Column Row Layer    Max.-Flux-Residual            L2-New               L2-Old           Solver-Max-Delh
         10                 1           0             8   10     1      -0.1965216947E-01       9   10    1       0.2467119662E+03      0.2123463309E+04      0.2134308538E+04     -0.6957130893E+00
         11                 1           0             8   10     1      -0.1375651839E-01       4    5    1       0.2433237009E+03      0.2116814453E+04      0.2123463309E+04     -0.6957130893E+00
         12                 1           0             8   10     1      -0.9629562711E-02       4    5    1       0.2437594639E+03      0.2112625436E+04      0.2116814453E+04     -0.6957130893E+00
         13                 1           0             8   10     1      -0.6740693783E-02       4    5    1       0.2440646423E+03      0.2109922321E+04      0.2112625436E+04     -0.6957130893E+00
         14                 1           0             8   10     1      -0.4718485568E-02       4    5    1       0.2442780174E+03      0.2108143539E+04      0.2109922321E+04     -0.6957130893E+00
         15                 1           0             8   10     1      -0.3302939841E-02       4    5    1       0.2444274535E+03      0.2106953943E+04      0.2108143539E+04     -0.6957130893E+00
         16                 1           0             8   10     1      -0.2312057849E-02       4    5    1       0.2445320226E+03      0.2106148431E+04      0.2106953943E+04     -0.6957130893E+00
         17                 1           0             8   10     1      -0.1618440467E-02       4    5    1       0.2446054369E+03      0.2105597636E+04      0.2106148431E+04     -0.6957130893E+00
         18                 1           0             8   10     1      -0.1132908308E-02       4    5    1       0.2446564890E+03      0.2105218384E+04      0.2105597636E+04     -0.6957130893E+00
         19                 1           0             8   10     1      -0.7930358018E-03       4    5    1       0.2446919872E+03      0.2104957286E+04      0.2105218384E+04     -0.6957130893E+00
                                                   Max.-Head-Change                        Max.-Flux-Residual
  Residual-Control   Outer-Iter.   Inner-Iter.     Column Row Layer    Max.-Head-Change    Column Row Layer    Max.-Flux-Residual            L2-New               L2-Old           Solver-Max-Delh
         20                 1           0             8   10     1      -0.5551250518E-03       4    5    1       0.2447175195E+03      0.2104774972E+04      0.2104957286E+04     -0.6957130893E+00
         21                 1           0             8   10     1      -0.3885875297E-03       4    5    1       0.2447351021E+03      0.2104649436E+04      0.2104774972E+04     -0.6957130893E+00
         22                 1           0             8   10     1      -0.2720112661E-03       4    5    1       0.2447475223E+03      0.2104560752E+04      0.2104649436E+04     -0.6957130893E+00
         23                 1           0             8   10     1      -0.1904078830E-03       4    5    1       0.2447559732E+03      0.2104498694E+04      0.2104560752E+04     -0.6957130893E+00
         24                 1           0             8   10     1      -0.1332855159E-03       4    5    1       0.2447617600E+03      0.2104456929E+04      0.2104498694E+04     -0.6957130893E+00
         25                 1           0             8   10     1      -0.9329985952E-04       4    5    1       0.2447659455E+03      0.2104426286E+04      0.2104456929E+04     -0.6957130893E+00
         26                 1           0             8   10     1      -0.6530990055E-04       4    5    1       0.2447692991E+03      0.2104405823E+04      0.2104426286E+04     -0.6957130893E+00
         27                 1           0             8   10     1      -0.4571692961E-04       4    5    1       0.2447712355E+03      0.2104390433E+04      0.2104405823E+04     -0.6957130893E+00
         28                 1           0             8   10     1      -0.3200185018E-04       4    5    1       0.2447729134E+03      0.2104380232E+04      0.2104390433E+04     -0.6957130893E+00
         29                 1           0             8   10     1      -0.2240129474E-04       4    5    1       0.2447741161E+03      0.2104373034E+04      0.2104380232E+04     -0.6957130893E+00
                                                   Max.-Head-Change                        Max.-Flux-Residual
  Residual-Control   Outer-Iter.   Inner-Iter.     Column Row Layer    Max.-Head-Change    Column Row Layer    Max.-Flux-Residual            L2-New               L2-Old           Solver-Max-Delh
         30                 1           0             8   10     1      -0.1568090605E-04       4    5    1       0.2447744453E+03      0.2104368208E+04      0.2104373034E+04     -0.6957130893E+00
         31                 1           0             8   10     1      -0.1097663405E-04       4    5    1       0.2447749199E+03      0.2104365115E+04      0.2104368208E+04     -0.6957130893E+00
         32                 1           0             8   10     1      -0.7683643705E-05       4    5    1       0.2447748371E+03      0.2104362814E+04      0.2104365115E+04     -0.6957130893E+00
         33                 1           0             8   10     1      -0.5378550502E-05       4    5    1       0.2447754383E+03      0.2104360975E+04      0.2104362814E+04     -0.6957130893E+00
         34                 1           0             8   10     1      -0.3764985287E-05       4    5    1       0.2447755173E+03      0.2104359567E+04      0.2104360975E+04     -0.6957130893E+00
         35                 1           0             8   10     1      -0.2635489656E-05       4    5    1       0.2447760609E+03      0.2104358899E+04      0.2104359567E+04     -0.6957130893E+00
         36                 1           0             8   10     1      -0.1844842728E-05       4    5    1       0.2447758555E+03      0.2104358288E+04      0.2104358899E+04     -0.6957130893E+00
         37                 1           0             8   10     1      -0.1291389887E-05       4    5    1       0.2447758826E+03      0.2104357942E+04      0.2104358288E+04     -0.6957130893E+00
         38                 1           0             8   10     1      -0.9039729058E-06       4    5    1       0.2447759016E+03      0.2104357516E+04      0.2104357942E+04     -0.6957130893E+00
         39                 1           0             8   10     1      -0.6327810233E-06       4    5    1       0.2447759149E+03      0.2104357418E+04      0.2104357516E+04     -0.6957130893E+00
                                                   Max.-Head-Change                        Max.-Flux-Residual
  Residual-Control   Outer-Iter.   Inner-Iter.     Column Row Layer    Max.-Head-Change    Column Row Layer    Max.-Flux-Residual            L2-New               L2-Old           Solver-Max-Delh
         40                 1           0             8   10     1      -0.4429467088E-06       4    5    1       0.2447759242E+03      0.2104357300E+04      0.2104357418E+04     -0.6957130893E+00
         41                 1           0             8   10     1      -0.3100626909E-06       4    5    1       0.2447759307E+03      0.2104357196E+04      0.2104357300E+04     -0.6957130893E+00
         42                 1           0             8   10     1      -0.2170438799E-06       4    5    1       0.2447759353E+03      0.2104357067E+04      0.2104357196E+04     -0.6957130893E+00
         43                 1           0             8   10     1      -0.1519307133E-06       4    5    1       0.2447759384E+03      0.2104356955E+04      0.2104357067E+04     -0.6957130893E+00
         44                 1           0             8   10     1      -0.1063514975E-06       4    5    1       0.2447759407E+03      0.2104356831E+04      0.2104356955E+04     -0.6957130893E+00
         45                 1           0             8   10     1      -0.7444604700E-07       4    5    1       0.2447759422E+03      0.2104356777E+04      0.2104356831E+04     -0.6957130893E+00
          0                 2           8             4    4     1       0.5575279837E+00       4    5    1       0.2447759433E+03      0.2104356862E+04      0.2104356777E+04      0.5575279837E+00
          0                 3           7             2    8     3       0.8774443960E-01       2    6    1       0.2297295756E+03      0.7287026337E+03      0.2104356862E+04      0.8774443960E-01
          0                 4           6             2    8     3       0.1540698004E-01       2    8    1       0.2607063829E+02      0.5506370595E+02      0.7287026337E+03      0.1540698004E-01
          0                 5           5             2    8     3       0.3298543375E-02       2    8    1       0.6896681305E+01      0.1657573087E+02      0.5506370595E+02      0.3298543375E-02
                                                   Max.-Head-Change                        Max.-Flux-Residual
  Residual-Control   Outer-Iter.   Inner-Iter.     Column Row Layer    Max.-Head-Change    Column Row Layer    Max.-Flux-Residual            L2-New               L2-Old           Solver-Max-Delh
          0                 6           4             2    8     3       0.6289248529E-03       3    9    1       0.1810235302E+01      0.4123747686E+01      0.1657573087E+02      0.6289248529E-03
          0                 7           4             3    7     1       0.1552687551E-03       3    9    1       0.5027670902E+00      0.1128921341E+01      0.4123747686E+01      0.1552687551E-03
          0                 8           3             3    7     1       0.3634348162E-04       3    9    1       0.1205873069E+00      0.2671214549E+00      0.1128921341E+01      0.3634348162E-04

    ------------------------------------------------
       NWT REQUIRED            8 OUTER ITERATIONS 
       AND A TOTAL OF         45 INNER ITERATIONS.
    ------------------------------------------------
                                                   Max.-Head-Change                        Max.-Flux-Residual
  Residual-Control   Outer-Iter.   Inner-Iter.     Column Row Layer    Max.-Head-Change    Column Row Layer    Max.-Flux-Residual            L2-New               L2-Old           Solver-Max-Delh
          0                 1           6             9    9     2       0.8292599946E-01       9    9    1       0.8910733497E+02      0.1716101582E+03      0.2671214549E+00      0.8292599946E-01
          0                 2           5            12   11     1      -0.1024490613E-01      12   11    1      -0.2815241104E+02      0.4854745746E+02      0.1716101582E+03     -0.1024490613E-01
          0                 3           4            12   11     1       0.8309290936E-03      12   11    1       0.4658948980E+01      0.6645985692E+01      0.4854745746E+02      0.8309290936E-03
          0                 4           3            12   10     1      -0.2841801673E-04      12   11    1       0.1738827490E+00      0.2852909043E+00      0.6645985692E+01     -0.2841801673E-04

    ------------------------------------------------
       NWT REQUIRED            4 OUTER ITERATIONS 
       AND A TOTAL OF         18 INNER ITERATIONS.
    ------------------------------------------------
                                                   Max.-Head-Change                        Max.-Flux-Residual
  Residual-Control   Outer-Iter.   Inner-Iter.     Column Row Layer    Max.-Head-Change    Column Row Layer    Max.-Flux-Residual            L2-New               L2-Old           Solver-Max-Delh
          0                 1           6             8    9     1       0.1721456567E-01       8    9    1       0.2301018465E+02      0.5676903750E+02      0.2852909043E+00      0.1721456567E-01
          1                 1           0             8    9     1       0.1205019576E-01      12   11    1      -0.5191175876E+02      0.8331244662E+02      0.5676903750E+02      0.1721456567E-01
          0                 2           6            12   11     1      -0.1844373781E-01      12   11    1      -0.5194561448E+02      0.8623281675E+02      0.8331244662E+02     -0.1844373781E-01
          0                 3           4            12   11     1       0.1468394480E-02      12   12    1       0.6578560156E+01      0.1090800690E+02      0.8623281675E+02      0.1468394480E-02
          0                 4           3            12   13     1      -0.4951015674E-04      12   12    1       0.2472797177E+00      0.4607721778E+00      0.1090800690E+02     -0.4951015674E-04

    ------------------------------------------------
       NWT REQUIRED            4 OUTER ITERATIONS 
       AND A TOTAL OF         19 INNER ITERATIONS.
    ------------------------------------------------
                                                   Max.-Head-Change                        Max.-Flux-Residual
  Residual-Control   Outer-Iter.   Inner-Iter.     Column Row Layer    Max.-Head-Change    Column Row Layer    Max.-Flux-Residual            L2-New               L2-Old           Solver-Max-Delh
          0                 1           6            10    5     1      -0.1645392072E-01       9    9    1      -0.2050684902E+02      0.4395726442E+02      0.4607721778E+00     -0.1645392072E-01
          0                 2           5            10    5     1       0.1420291845E-02       9    9    1       0.2050216171E+01      0.4455612417E+01      0.4395726442E+02      0.1420291845E-02
          0                 3           3            10    5     1       0.7112267620E-04       9    9    1       0.1022286555E+00      0.2437395146E+00      0.4455612417E+01      0.7112267620E-04

    ------------------------------------------------
       NWT REQUIRED            3 OUTER ITERATIONS 
       AND A TOTAL OF         14 INNER ITERATIONS.
    ------------------------------------------------
                                                   Max.-Head-Change                        Max.-Flux-Residual
  Residual-Control   Outer-Iter.   Inner-Iter.     Column Row Layer    Max.-Head-Change    Column Row Layer    Max.-Flux-Residual            L2-New               L2-Old           Solver-Max-Delh
          0                 1           6             9    9     1      -0.1433917390E-01       9    9    1      -0.1756783201E+02      0.3221766224E+02      0.2437395146E+00     -0.1433917390E-01
          0                 2           4             9    9     1       0.1216213647E-02       9    9    1       0.1755903870E+01      0.3204744536E+01      0.3221766224E+02      0.1216213647E-02
          0                 3           3             9    9     1       0.6270202020E-04       9    9    1       0.8790912665E-01      0.1657487228E+00      0.3204744536E+01      0.6270202020E-04

    ------------------------------------------------
       NWT REQUIRED            3 OUTER ITERATIONS 
       AND A TOTAL OF         13 INNER ITERATIONS.
    ------------------------------------------------
                                                   Max.-Head-Change                        Max.-Flux-Residual
  Residual-Control   Outer-Iter.   Inner-Iter.     Column Row Layer    Max.-Head-Change    Column Row Layer    Max.-Flux-Residual            L2-New               L2-Old           Solver-Max-Delh
          0                 1           5             9    9     1      -0.8032304614E-02       9    9    1      -0.8924843332E+01      0.1874123337E+02      0.1657487228E+00     -0.8032304614E-02
          0                 2           4             9    9     1       0.6783075692E-03       9    9    1       0.8921200788E+00      0.1877358644E+01      0.1874123337E+02      0.6783075692E-03
          0                 3           3             9    9     1       0.3489089687E-04       9    9    1       0.4420518124E-01      0.9770586259E-01      0.1877358644E+01      0.3489089687E-04

    ------------------------------------------------
       NWT REQUIRED            3 OUTER ITERATIONS 
       AND A TOTAL OF         12 INNER ITERATIONS.
    ------------------------------------------------
                                                   Max.-Head-Change                        Max.-Flux-Residual
  Residual-Control   Outer-Iter.   Inner-Iter.     Column Row Layer    Max.-Head-Change    Column Row Layer    Max.-Flux-Residual            L2-New               L2-Old           Solver-Max-Delh
          0                 1           5             9    5     1      -0.3662582620E-02       8    5    1      -0.2992884894E+01      0.9521064693E+01      0.9770586259E-01     -0.3662582620E-02
          0                 2           4             9    5     1       0.3162577017E-03       8    5    1       0.2998125880E+00      0.9656169157E+00      0.9521064693E+01      0.3162577017E-03
          0                 3           2             9    5     1       0.1563318863E-04       8    5    1       0.1459819369E-01      0.5225199978E-01      0.9656169157E+00      0.1563318863E-04

    ------------------------------------------------
       NWT REQUIRED            3 OUTER ITERATIONS 
       AND A TOTAL OF         11 INNER ITERATIONS.
    ------------------------------------------------
                                                   Max.-Head-Change                        Max.-Flux-Residual
  Residual-Control   Outer-Iter.   Inner-Iter.     Column Row Layer    Max.-Head-Change    Column Row Layer    Max.-Flux-Residual            L2-New               L2-Old           Solver-Max-Delh
          0                 1           5             8    5     1      -0.1609701408E-02       7    9    1      -0.1701777655E+01      0.4669235417E+01      0.5225199978E-01     -0.1609701408E-02
          0                 2           4             8    5     1       0.1390036098E-03       7    9    1       0.1701234580E+00      0.4771284526E+00      0.4669235417E+01      0.1390036098E-03
          0                 3           2             8    5     1       0.6986051110E-05       7    9    1       0.8637160587E-02      0.2735087866E-01      0.4771284526E+00      0.6986051110E-05

    ------------------------------------------------
       NWT REQUIRED            3 OUTER ITERATIONS 
       AND A TOTAL OF         11 INNER ITERATIONS.
    ------------------------------------------------
                                                   Max.-Head-Change                        Max.-Flux-Residual
  Residual-Control   Outer-Iter.   Inner-Iter.     Column Row Layer    Max.-Head-Change    Column Row Layer    Max.-Flux-Residual            L2-New               L2-Old           Solver-Max-Delh
          0                 1           4            12    6     2      -0.6738058026E-03       7    9    1      -0.1042388745E+01      0.2363831808E+01      0.2735087866E-01     -0.6738058026E-03
          0                 2           3            12    6     2       0.5789020511E-04       7    9    1       0.1042772738E+00      0.2412930653E+00      0.2363831808E+01      0.5789020511E-04

    ------------------------------------------------
       NWT REQUIRED            2 OUTER ITERATIONS 
       AND A TOTAL OF          7 INNER ITERATIONS.
    ------------------------------------------------
                                                   Max.-Head-Change                        Max.-Flux-Residual
  Residual-Control   Outer-Iter.   Inner-Iter.     Column Row Layer    Max.-Head-Change    Column Row Layer    Max.-Flux-Residual            L2-New               L2-Old           Solver-Max-Delh
          0                 1           4             9    9     1       0.3210991484E-03       9    9    1       0.6389392219E+00      0.1164490559E+01      0.2412930653E+00      0.3210991484E-03
          0                 2           3             9    9     1      -0.2808872820E-04       9    9    1      -0.6393702998E-01      0.1178633028E+00      0.1164490559E+01     -0.2808872820E-04

    ------------------------------------------------
       NWT REQUIRED            2 OUTER ITERATIONS 
       AND A TOTAL OF          7 INNER ITERATIONS.
    ------------------------------------------------

 OUTPUT CONTROL FOR STRESS PERIOD     14   TIME STEP     1
    SAVE BUDGET
 UBDSV1 SAVING "         STORAGE" ON UNIT  70 AT TIME STEP    1, STRESS PERIOD  14
 UBDSV2 SAVING "   CONSTANT HEAD" ON UNIT  70 AT TIME STEP    1, STRESS PERIOD  14
 UBDSV1 SAVING "FLOW RIGHT FACE " ON UNIT  70 AT TIME STEP    1, STRESS PERIOD  14
 UBDSV1 SAVING "FLOW FRONT FACE " ON UNIT  70 AT TIME STEP    1, STRESS PERIOD  14
 UBDSV1 SAVING "FLOW LOWER FACE " ON UNIT  70 AT TIME STEP    1, STRESS PERIOD  14
 UBDSV4 SAVING " HEAD DEP BOUNDS" ON UNIT  70 AT TIME STEP    1, STRESS PERIOD  14
 UBDSV4 SAVING "  STREAM LEAKAGE" ON UNIT  70 AT TIME STEP    1, STRESS PERIOD  14



 UBDSV4 SAVING "             MNW" ON UNIT  70 AT TIME STEP    1, STRESS PERIOD  14
 
 
 
 
 
 
 
 
 UBDSV3 SAVING "FARM  NET  RECH." ON UNIT  70 AT TIME STEP    1, STRESS PERIOD  14
 UBDSV4 SAVING " GHOST-NODE FLUX" ON UNIT  70 AT TIME STEP    1, STRESS PERIOD  14
 UBDSV4 SAVING " GHOST-NODE FLUX" ON UNIT  70 AT TIME STEP    1, STRESS PERIOD  14
 UBDSV4 SAVING " GHOST-NODE FLUX" ON UNIT  70 AT TIME STEP    1, STRESS PERIOD  14
 
 SOLVING FOR HEAD 
                                                   Max.-Head-Change                        Max.-Flux-Residual
  Residual-Control   Outer-Iter.   Inner-Iter.     Column Row Layer    Max.-Head-Change    Column Row Layer    Max.-Flux-Residual            L2-New               L2-Old           Solver-Max-Delh
          0                 1           8             4    5     1       0.5101173054E+00       4    5    1       0.1770778763E+03      0.1903244804E+04      0.1178633028E+00      0.5101173054E+00
          0                 2           7             4    4     1      -0.4332458651E-01      12   12    1       0.4075416684E+02      0.2043605132E+03      0.1903244804E+04     -0.4332458651E-01
          0                 3           6             2    6     3      -0.9482021351E-02       2    6    1      -0.2105805526E+02      0.3643380356E+02      0.2043605132E+03     -0.9482021351E-02
          0                 4           5             2    8     3      -0.3073132941E-02       2    6    1      -0.6973255763E+01      0.1162416560E+02      0.3643380356E+02     -0.3073132941E-02
          0                 5           4             2    8     3      -0.9646522816E-03       2    8    1      -0.2162280700E+01      0.3537751247E+01      0.1162416560E+02     -0.9646522816E-03
          0                 6           4             2    8     3      -0.2997036022E-03       2    8    1      -0.6785046925E+00      0.1081088737E+01      0.3537751247E+01     -0.2997036022E-03
          0                 7           3             2    8     3      -0.9261333141E-04       2    8    1      -0.2106230410E+00      0.3299129613E+00      0.1081088737E+01     -0.9261333141E-04

    ------------------------------------------------
       NWT REQUIRED            7 OUTER ITERATIONS 
       AND A TOTAL OF         37 INNER ITERATIONS.
    ------------------------------------------------
                                                   Max.-Head-Change                        Max.-Flux-Residual
  Residual-Control   Outer-Iter.   Inner-Iter.     Column Row Layer    Max.-Head-Change    Column Row Layer    Max.-Flux-Residual            L2-New               L2-Old           Solver-Max-Delh
          0                 1           6             9    9     2       0.7120937585E-01       9    9    1       0.7239125054E+02      0.1492155244E+03      0.3299129613E+00      0.7120937585E-01
          0                 2           6            12   11     1      -0.2321307649E-01      12   11    1      -0.6596678061E+02      0.1071524014E+03      0.1492155244E+03     -0.2321307649E-01
          0                 3           4            12   11     1       0.1847257332E-02      12   11    1       0.7536274783E+01      0.1313719917E+02      0.1071524014E+03      0.1847257332E-02
          0                 4           3            12   12     1       0.5787053680E-04      12   12    1       0.2532691582E+00      0.5123080004E+00      0.1313719917E+02      0.5787053680E-04

    ------------------------------------------------
       NWT REQUIRED            4 OUTER ITERATIONS 
       AND A TOTAL OF         19 INNER ITERATIONS.
    ------------------------------------------------
                                                   Max.-Head-Change                        Max.-Flux-Residual
  Residual-Control   Outer-Iter.   Inner-Iter.     Column Row Layer    Max.-Head-Change    Column Row Layer    Max.-Flux-Residual            L2-New               L2-Old           Solver-Max-Delh
          0                 1           6             8    9     1       0.1729478164E-01       8    9    1       0.2157979534E+02      0.5077759180E+02      0.5123080004E+00      0.1729478164E-01
          1                 1           0             8    9     1       0.1210634694E-01      12   11    1      -0.5164412633E+02      0.8285179123E+02      0.5077759180E+02      0.1729478164E-01
          0                 2           6            12   11     1      -0.1842114197E-01      12   11    1      -0.5167410911E+02      0.8558477244E+02      0.8285179123E+02     -0.1842114197E-01
          0                 3           4            12   11     1       0.1469783078E-02      12   12    1       0.5720716743E+01      0.9806958606E+01      0.8558477244E+02      0.1469783078E-02
          0                 4           3            12   13     1      -0.4901795253E-04      12   13    1      -0.2616538089E+00      0.4134142006E+00      0.9806958606E+01     -0.4901795253E-04

    ------------------------------------------------
       NWT REQUIRED            4 OUTER ITERATIONS 
       AND A TOTAL OF         19 INNER ITERATIONS.
    ------------------------------------------------
                                                   Max.-Head-Change                        Max.-Flux-Residual
  Residual-Control   Outer-Iter.   Inner-Iter.     Column Row Layer    Max.-Head-Change    Column Row Layer    Max.-Flux-Residual            L2-New               L2-Old           Solver-Max-Delh
          0                 1           6            10    5     2      -0.1551409549E-01      10    5    1      -0.1498709777E+02      0.3672999731E+02      0.4134142006E+00     -0.1551409549E-01
          0                 2           5            10    5     2       0.1339899902E-02      10    5    1       0.1496424419E+01      0.3714927369E+01      0.3672999731E+02      0.1339899902E-02
          0                 3           3            10    5     2       0.6691063993E-04      10    5    1       0.7481197623E-01      0.2035485733E+00      0.3714927369E+01      0.6691063993E-04

    ------------------------------------------------
       NWT REQUIRED            3 OUTER ITERATIONS 
       AND A TOTAL OF         14 INNER ITERATIONS.
    ------------------------------------------------
                                                   Max.-Head-Change                        Max.-Flux-Residual
  Residual-Control   Outer-Iter.   Inner-Iter.     Column Row Layer    Max.-Head-Change    Column Row Layer    Max.-Flux-Residual            L2-New               L2-Old           Solver-Max-Delh
          0                 1           6             9    9     3      -0.1225798549E-01       9    9    1      -0.1294081089E+02      0.2685135421E+02      0.2035485733E+00     -0.1225798549E-01
          0                 2           4             9    9     3       0.1054663123E-02       9    9    1       0.1293686836E+01      0.2674722423E+01      0.2685135421E+02      0.1054663123E-02
          0                 3           3             9    9     3       0.5326535472E-04       9    9    1       0.6467212562E-01      0.1382744014E+00      0.2674722423E+01      0.5326535472E-04

    ------------------------------------------------
       NWT REQUIRED            3 OUTER ITERATIONS 
       AND A TOTAL OF         13 INNER ITERATIONS.
    ------------------------------------------------
                                                   Max.-Head-Change                        Max.-Flux-Residual
  Residual-Control   Outer-Iter.   Inner-Iter.     Column Row Layer    Max.-Head-Change    Column Row Layer    Max.-Flux-Residual            L2-New               L2-Old           Solver-Max-Delh
          0                 1           5             9    9     2      -0.6809015986E-02       9    9    1      -0.7140642581E+01      0.1591869432E+02      0.1382744014E+00     -0.6809015986E-02
          0                 2           4             9    9     2       0.5785714942E-03       9    9    1       0.7136769030E+00      0.1597017268E+01      0.1591869432E+02      0.5785714942E-03
          0                 3           3             9    9     2       0.2987097866E-04       9    9    1       0.3588183242E-01      0.8320586311E-01      0.1597017268E+01      0.2987097866E-04

    ------------------------------------------------
       NWT REQUIRED            3 OUTER ITERATIONS 
       AND A TOTAL OF         12 INNER ITERATIONS.
    ------------------------------------------------
                                                   Max.-Head-Change                        Max.-Flux-Residual
  Residual-Control   Outer-Iter.   Inner-Iter.     Column Row Layer    Max.-Head-Change    Column Row Layer    Max.-Flux-Residual            L2-New               L2-Old           Solver-Max-Delh
          0                 1           5             8    5     1      -0.3117061528E-02       6    6    1      -0.2574405875E+01      0.8226208790E+01      0.8320586311E-01     -0.3117061528E-02
          0                 2           4             8    5     1       0.2692474880E-03       6    6    1       0.2575072669E+00      0.8345950642E+00      0.8226208790E+01      0.2692474880E-03
          0                 3           2             8    5     1       0.1328659159E-04       6    6    1       0.1314432762E-01      0.4471856090E-01      0.8345950642E+00      0.1328659159E-04

    ------------------------------------------------
       NWT REQUIRED            3 OUTER ITERATIONS 
       AND A TOTAL OF         11 INNER ITERATIONS.
    ------------------------------------------------
                                                   Max.-Head-Change                        Max.-Flux-Residual
  Residual-Control   Outer-Iter.   Inner-Iter.     Column Row Layer    Max.-Head-Change    Column Row Layer    Max.-Flux-Residual            L2-New               L2-Old           Solver-Max-Delh
          0                 1           5             8    5     1      -0.1316580525E-02       7    9    1      -0.1498201514E+01      0.4027698010E+01      0.4471856090E-01     -0.1316580525E-02
          0                 2           3             8    5     1       0.1134068290E-03       7    9    1       0.1497860284E+00      0.4136668870E+00      0.4027698010E+01      0.1134068290E-03
          0                 3           2             6    6     1       0.5627494979E-05       7    9    1       0.7378892566E-02      0.2388296467E-01      0.4136668870E+00      0.5627494979E-05

    ------------------------------------------------
       NWT REQUIRED            3 OUTER ITERATIONS 
       AND A TOTAL OF         10 INNER ITERATIONS.
    ------------------------------------------------
                                                   Max.-Head-Change                        Max.-Flux-Residual
  Residual-Control   Outer-Iter.   Inner-Iter.     Column Row Layer    Max.-Head-Change    Column Row Layer    Max.-Flux-Residual            L2-New               L2-Old           Solver-Max-Delh
          0                 1           4             7    9     1      -0.6080825132E-03       7    9    1      -0.9164808244E+00      0.1999638295E+01      0.2388296467E-01     -0.6080825132E-03
          0                 2           3             7    9     1       0.5203979384E-04       7    9    1       0.9149861865E-01      0.2051069521E+00      0.1999638295E+01      0.5203979384E-04

    ------------------------------------------------
       NWT REQUIRED            2 OUTER ITERATIONS 
       AND A TOTAL OF          7 INNER ITERATIONS.
    ------------------------------------------------
                                                   Max.-Head-Change                        Max.-Flux-Residual
  Residual-Control   Outer-Iter.   Inner-Iter.     Column Row Layer    Max.-Head-Change    Column Row Layer    Max.-Flux-Residual            L2-New               L2-Old           Solver-Max-Delh
          0                 1           4             7    9     1      -0.2855134869E-03       9    9    1       0.4925815057E+00      0.9825233090E+00      0.2051069521E+00     -0.2855134869E-03
          0                 2           2             7    9     1       0.2450993591E-04       7    9    1       0.4896540398E-01      0.1000529840E+00      0.9825233090E+00      0.2450993591E-04

    ------------------------------------------------
       NWT REQUIRED            2 OUTER ITERATIONS 
       AND A TOTAL OF          6 INNER ITERATIONS.
    ------------------------------------------------

 OUTPUT CONTROL FOR STRESS PERIOD     14   TIME STEP     2
    SAVE BUDGET
 UBDSV1 SAVING "         STORAGE" ON UNIT  70 AT TIME STEP    2, STRESS PERIOD  14
 UBDSV2 SAVING "   CONSTANT HEAD" ON UNIT  70 AT TIME STEP    2, STRESS PERIOD  14
 UBDSV1 SAVING "FLOW RIGHT FACE " ON UNIT  70 AT TIME STEP    2, STRESS PERIOD  14
 UBDSV1 SAVING "FLOW FRONT FACE " ON UNIT  70 AT TIME STEP    2, STRESS PERIOD  14
 UBDSV1 SAVING "FLOW LOWER FACE " ON UNIT  70 AT TIME STEP    2, STRESS PERIOD  14
 UBDSV4 SAVING " HEAD DEP BOUNDS" ON UNIT  70 AT TIME STEP    2, STRESS PERIOD  14
 UBDSV4 SAVING "  STREAM LEAKAGE" ON UNIT  70 AT TIME STEP    2, STRESS PERIOD  14



 UBDSV4 SAVING "             MNW" ON UNIT  70 AT TIME STEP    2, STRESS PERIOD  14
 
 
 
 
 
 
 
 
 UBDSV3 SAVING "FARM  NET  RECH." ON UNIT  70 AT TIME STEP    2, STRESS PERIOD  14
 UBDSV4 SAVING " GHOST-NODE FLUX" ON UNIT  70 AT TIME STEP    2, STRESS PERIOD  14
 UBDSV4 SAVING " GHOST-NODE FLUX" ON UNIT  70 AT TIME STEP    2, STRESS PERIOD  14
 UBDSV4 SAVING " GHOST-NODE FLUX" ON UNIT  70 AT TIME STEP    2, STRESS PERIOD  14
1
  VOLUMETRIC BUDGET FOR ENTIRE MODEL AT END OF TIME STEP    2 IN STRESS PERIOD     14
  ------------------------------------------------------------------------------

     CUMULATIVE VOLUMES      L**3       RATES FOR THIS TIME STEP      L**3/T
     ------------------                 ------------------------

           IN:                                      IN:
           ---                                      ---
             STORAGE =    12346808.0000               STORAGE =           0.0000
       CONSTANT HEAD =           0.0000         CONSTANT HEAD =           0.0000
     HEAD DEP BOUNDS =     3096305.0000       HEAD DEP BOUNDS =        6620.7207
      STREAM LEAKAGE =     7588526.0000        STREAM LEAKAGE =       10824.9307
                 MNW =       32499.7578                   MNW =         127.3986
          FARM WELLS =           0.0000            FARM WELLS =           0.0000
    FARM  NET  RECH. =     9476905.0000      FARM  NET  RECH. =       37970.3672
     GHOST-NODE FLUX =     2388432.7500       GHOST-NODE FLUX =        7549.1631

            TOTAL IN =    34929476.0000              TOTAL IN =       63092.5820

          OUT:                                     OUT:
          ----                                     ----
             STORAGE =     7809102.5000               STORAGE =       35680.5000
       CONSTANT HEAD =           0.0000         CONSTANT HEAD =           0.0000
     HEAD DEP BOUNDS =     7271172.5000       HEAD DEP BOUNDS =       17739.8145
      STREAM LEAKAGE =      539915.0000        STREAM LEAKAGE =        3045.1138
                 MNW =     3022870.5000                   MNW =         127.3986
          FARM WELLS =     3852822.5000            FARM WELLS =           0.0000
    FARM  NET  RECH. =     1253414.1250      FARM  NET  RECH. =         564.6426
     GHOST-NODE FLUX =    11180182.0000       GHOST-NODE FLUX =        5935.0811

           TOTAL OUT =    34929480.0000             TOTAL OUT =       63092.5508

            IN - OUT =          -4.0000              IN - OUT =       3.1250E-02

 PERCENT DISCREPANCY =          -0.00     PERCENT DISCREPANCY =           0.00






          TIME SUMMARY AT END OF TIME STEP     2 IN STRESS PERIOD     14
                    SECONDS     MINUTES      HOURS       DAYS        YEARS
                    -----------------------------------------------------------
   TIME STEP LENGTH 1.31414E+06  21902.      365.04      15.210     4.16427E-02
 STRESS PERIOD TIME 2.62829E+06  43805.      730.08      30.420     8.32854E-02
         TOTAL TIME 3.67960E+07 6.13267E+05  10221.      425.88      1.1660    
1
1
                            STRESS PERIOD NO.     15, LENGTH =   30.42000    
                            -----------------------------------------------

                              NUMBER OF TIME STEPS =     2

                               MULTIPLIER FOR DELT =     1.000

                            INITIAL TIME STEP SIZE =   15.21000    

 REUSING NON-PARAMETER GHB CELLS FROM LAST STRESS PERIOD

     92 GHB CELLS

 REUSING STREAM SEGMENT DATA FROM LAST STRESS PERIOD

 REUSING MNW7  FROM LAST STRESS PERIOD

 Parameter:  WELLS1
 WELL NO. LAYER    ROW    COL  F-WELL ID    FARM ID         QMAX         QMAXRESET       
 ----------------------------------------------------------------------------------------
       1      1      5      6          1          1      5.0000E+03              0
       2      1      8      7          2          1      5.0000E+03              0
       3      1      8      9          3          1      5.0000E+03              0
       4      1      5      9          4          2      3.0000E+03              0
       5      1      6     10          5          2      2.0000E+03              0
       6      1      7     11          6          2      1.0000E+03              0
       7      1     18      3          7          3      2.0000E+03              0
       8      1     21      3          8          3      4.0000E+03              0
       9      1     18     19          9          4      3.0000E+03              0
      10      1     21     19         10          4      5.0000E+03              0
      11      0      6      2        -11          5      5.0000E+03              1
      12      0      8      2        -12          5      5.0000E+03              1
      13      0     10      2        -13          5      5.0000E+03              1
      14      0      3     19        -14          6      1.0000E+04              1
      15      0      6     17        -15          6      6.0000E+03              1

 NUMBER OF ACTIVE FARM WELLS:       15

 THE SINGLE LAYER FMP- OR MNW- WELL IN ROW      8 AND COLUMN      7 IS LOCATED IN AN INACTIVE CELL (IBOUND=0) AND HAS BEEN EXCLUDED FROM THE TOTAL MAXIMUM CAPACITY PER FARM

 THE SINGLE LAYER FMP- OR MNW- WELL IN ROW      8 AND COLUMN      9 IS LOCATED IN AN INACTIVE CELL (IBOUND=0) AND HAS BEEN EXCLUDED FROM THE TOTAL MAXIMUM CAPACITY PER FARM

 THE SINGLE LAYER FMP- OR MNW- WELL IN ROW      6 AND COLUMN     10 IS LOCATED IN AN INACTIVE CELL (IBOUND=0) AND HAS BEEN EXCLUDED FROM THE TOTAL MAXIMUM CAPACITY PER FARM

 THE SINGLE LAYER FMP- OR MNW- WELL IN ROW      7 AND COLUMN     11 IS LOCATED IN AN INACTIVE CELL (IBOUND=0) AND HAS BEEN EXCLUDED FROM THE TOTAL MAXIMUM CAPACITY PER FARM

 FARM-ID  NUMBER OF WELLS PER FARM  TOTAL MAX.CAPACITY PER FARM
       1                         1                    5000.0000
       2                         1                    3000.0000
       3                         2                    6000.0000
       4                         2                    8000.0000
       5                         3                   15000.0000
       6                         2                   16000.0000
       7                         0                       0.0000
       8                         0                       0.0000

 READING LIST ON UNIT   20 WITH FILE NAME: C:\MF_OWHM_Release_Package\MF_OWHM_v1_0\examples\test-run-owhm-lgr\fmp-lgr-nwt\DATA_FMP\OFE.in
 LIST SCALING FACTOR= 0.90000    
 (THE SCALE FACTOR WAS APPLIED TO FIELDS   2 -   7)

 Reading list on unit   30

 Reading list on unit   40

  REF. EVAPOTRANSPIRATION =  2.890000E-03

 READING LIST ON UNIT   50 WITH FILE NAME: C:\MF_OWHM_Release_Package\MF_OWHM_v1_0\examples\test-run-owhm-lgr\fmp-lgr-nwt\DATA_FMP\FTE.in

Transpiratory and Evaporative Fractions of Crop Consumptive Use
    % Transpiration % Evap. for Precip. % Evap. for Irrig.
    1          0.221          0.779          0.500
    2          0.860          0.140          0.140
    3          0.000          1.000          1.000
    4          0.125          0.875          0.875
    5          0.835          0.165          0.000
    6          0.600          0.400          0.000

 READING LIST ON UNIT   60 WITH FILE NAME: C:\MF_OWHM_Release_Package\MF_OWHM_v1_0\examples\test-run-owhm-lgr\fmp-lgr-nwt\DATA_FMP\INEFFSW.in

FRACTIONS OF IN-EFFICIENT LOSSES TO SW-RUNOFF FROM 
     PRECIPITATION:  IRRIGATION:
    1          0.500          0.600
    2          0.400          0.300
    3          0.600          0.500
    4          0.700          0.600
    5          0.500          0.000
    6          0.300          0.000

       PRECIPITATION FLUX =  1.840000E-03

 OPENING FILE WITH FILENAME: ./DATA_FMP/NRDV.in
 AND UNIT NUMBER: -161
 READING SCALE FACTOR LIST ON UNIT   80 ASSOCIATED WITH FILE: C:\MF_OWHM_Release_Package\MF_OWHM_v1_0\examples\test-run-owhm-lgr\fmp-lgr-nwt\DATA_FMP\NRDV.in
 FIELD     SCALE FACTOR
     1       1.0000    
     2       3.0000    
     3       1.0000    
     4       1.0000    

UNRANKED LIST OF NON-ROUTED DELIVERIES TO FARMS [L3]:
TYPE:             1

FARM-ID  VOLUME:
      1   4.500E+04
      2   4.500E+04
      3   6.000E+04
      4   3.000E+04
      5   3.000E+04
      6   6.000E+04
      7   0.000E+00
      8   0.000E+00

FARM-ID  PRIORITY RANK OF NRD-TYPE:
      1           1
      2           1
      3           1
      4           1
      5           1
      6           1
      7           1
      8           1

FARM-ID  USE-FLAG:
         0 = SUFFICIENT USE
         1 = ABSOLUTE USE (RECHARGE SURPLUS BACK INTO CANAL)
         2 = ABSOLUTE USE (INJECT SURPLUS INTO FARM-WELLS)
      1           0
      2           0
      3           0
      4           0
      5           0
      6           0
      7           0
      8           0

LIST OF NON-ROUTED DELIVERIES IN RANKED SEQUENCE [L3/T]:

FARM-ID  RATE:
      1   1.479E+03
      2   1.479E+03
      3   1.972E+03
      4   9.862E+02
      5   9.862E+02
      6   1.972E+03
      7   0.000E+00
      8   0.000E+00

FARM-ID  USE-FLAG:
         0 = SUFFICIENT USE
         1 = ABSOLUTE USE (RECHARGE SURPLUS BACK INTO CANAL)
         2 = ABSOLUTE USE (INJECT SURPLUS INTO FARM-WELLS)
      1           0
      2           0
      3           0
      4           0
      5           0
      6           0
      7           0
      8           0

SURFACE-WATER FARM ALLOTMENT HEIGHT [L]:   0.013
 
 SOLVING FOR HEAD 
                                                   Max.-Head-Change                        Max.-Flux-Residual
  Residual-Control   Outer-Iter.   Inner-Iter.     Column Row Layer    Max.-Head-Change    Column Row Layer    Max.-Flux-Residual            L2-New               L2-Old           Solver-Max-Delh
          0                 1           8             9   18     1      -0.4239739050E+00       8   10    1      -0.4477198831E+03      0.1752074506E+04      0.1000529840E+00     -0.4239739050E+00
          0                 2           8             8   10     1       0.2916291678E+00       8   10    1       0.8666987429E+03      0.1767855240E+04      0.1752074506E+04      0.2916291678E+00
          0                 3           6            20   14     1       0.2985607058E-01       4    3    1      -0.5808394630E+02      0.2681890890E+03      0.1767855240E+04      0.2985607058E-01
          0                 4           5            20   14     1       0.6511161884E-02      12   12    1       0.1543876750E+02      0.3206536837E+02      0.2681890890E+03      0.6511161884E-02
          0                 5           4            20   14     1       0.1402303631E-02      12   12    1       0.1884971610E+01      0.4686961124E+01      0.3206536837E+02      0.1402303631E-02
          0                 6           4            20   14     1       0.3000196835E-03      19   18    1       0.3120982682E+00      0.9403701717E+00      0.4686961124E+01      0.3000196835E-03
          0                 7           3            20   15     1       0.6437185329E-04      19   18    1       0.8882390580E-01      0.2282071867E+00      0.9403701717E+00      0.6437185329E-04

    ------------------------------------------------
       NWT REQUIRED            7 OUTER ITERATIONS 
       AND A TOTAL OF         38 INNER ITERATIONS.
    ------------------------------------------------
                                                   Max.-Head-Change                        Max.-Flux-Residual
  Residual-Control   Outer-Iter.   Inner-Iter.     Column Row Layer    Max.-Head-Change    Column Row Layer    Max.-Flux-Residual            L2-New               L2-Old           Solver-Max-Delh
          0                 1           6             9    9     3       0.4101012356E-01      12   10    1      -0.5215982148E+02      0.1215283326E+03      0.2282071867E+00      0.4101012356E-01
          1                 1           0             9    9     3       0.2870708600E-01      12   11    1      -0.1152881155E+03      0.1847283299E+03      0.1215283326E+03      0.4101012356E-01
          0                 2           6            12   11     1      -0.4080200625E-01      12   11    1      -0.1183319767E+03      0.1960882772E+03      0.1847283299E+03     -0.4080200625E-01
          0                 3           4            12   11     1       0.3221534658E-02      12   11    1       0.1096935660E+02      0.1929015440E+02      0.1960882772E+03      0.3221534658E-02
          0                 4           3            12   12     1       0.7973080540E-04      12   12    1       0.2743439282E+00      0.6186704993E+00      0.1929015440E+02      0.7973080540E-04

    ------------------------------------------------
       NWT REQUIRED            4 OUTER ITERATIONS 
       AND A TOTAL OF         19 INNER ITERATIONS.
    ------------------------------------------------
                                                   Max.-Head-Change                        Max.-Flux-Residual
  Residual-Control   Outer-Iter.   Inner-Iter.     Column Row Layer    Max.-Head-Change    Column Row Layer    Max.-Flux-Residual            L2-New               L2-Old           Solver-Max-Delh
          0                 1           6             7    5     1      -0.2334581720E-01       7    5    1      -0.3018273690E+02      0.7058436241E+02      0.6186704993E+00     -0.2334581720E-01
          0                 2           5            12   11     1      -0.1260274924E-01      12   11    1      -0.3699894535E+02      0.5930920461E+02      0.7058436241E+02     -0.1260274924E-01
          0                 3           4            12   11     1       0.9766501447E-03      12   11    1       0.5477310624E+01      0.7581526728E+01      0.5930920461E+02      0.9766501447E-03
          0                 4           3            12   12     1      -0.5970407297E-04      12   12    1      -0.2717195139E+00      0.4095422513E+00      0.7581526728E+01     -0.5970407297E-04

    ------------------------------------------------
       NWT REQUIRED            4 OUTER ITERATIONS 
       AND A TOTAL OF         18 INNER ITERATIONS.
    ------------------------------------------------
                                                   Max.-Head-Change                        Max.-Flux-Residual
  Residual-Control   Outer-Iter.   Inner-Iter.     Column Row Layer    Max.-Head-Change    Column Row Layer    Max.-Flux-Residual            L2-New               L2-Old           Solver-Max-Delh
          0                 1           6             9    5     2      -0.1304804435E-01       7    5    1      -0.1676843903E+02      0.4060551535E+02      0.4095422513E+00     -0.1304804435E-01
          0                 2           5             9    5     2       0.1126666483E-02       7    5    1       0.1675382540E+01      0.4139773007E+01      0.4060551535E+02      0.1126666483E-02
          0                 3           3             9    5     2       0.5622972354E-04       7    5    1       0.8384210453E-01      0.2309789425E+00      0.4139773007E+01      0.5622972354E-04

    ------------------------------------------------
       NWT REQUIRED            3 OUTER ITERATIONS 
       AND A TOTAL OF         14 INNER ITERATIONS.
    ------------------------------------------------
                                                   Max.-Head-Change                        Max.-Flux-Residual
  Residual-Control   Outer-Iter.   Inner-Iter.     Column Row Layer    Max.-Head-Change    Column Row Layer    Max.-Flux-Residual            L2-New               L2-Old           Solver-Max-Delh
          0                 1           5             9    9     4      -0.8462581907E-02       7    5    1      -0.7691559412E+01      0.2115044358E+02      0.2309789425E+00     -0.8462581907E-02
          0                 2           4             9    9     4       0.7337256485E-03       7    5    1       0.7686668001E+00      0.2150057196E+01      0.2115044358E+02      0.7337256485E-03
          0                 3           3             9    9     4       0.3662688428E-04       7    5    1       0.3839898406E-01      0.1266354248E+00      0.2150057196E+01      0.3662688428E-04

    ------------------------------------------------
       NWT REQUIRED            3 OUTER ITERATIONS 
       AND A TOTAL OF         12 INNER ITERATIONS.
    ------------------------------------------------
                                                   Max.-Head-Change                        Max.-Flux-Residual
  Residual-Control   Outer-Iter.   Inner-Iter.     Column Row Layer    Max.-Head-Change    Column Row Layer    Max.-Flux-Residual            L2-New               L2-Old           Solver-Max-Delh
          0                 1           5             9    9     4      -0.4646462038E-02      12   10    1       0.3959619293E+01      0.1040673938E+02      0.1266354248E+00     -0.4646462038E-02
          0                 2           4             9    9     4       0.4025774400E-03      12   10    1      -0.3698081670E+00      0.1051146789E+01      0.1040673938E+02      0.4025774400E-03
          0                 3           2             9    9     4       0.1980197922E-04      12   11    1       0.2322286379E-01      0.6282207512E-01      0.1051146789E+01      0.1980197922E-04

    ------------------------------------------------
       NWT REQUIRED            3 OUTER ITERATIONS 
       AND A TOTAL OF         11 INNER ITERATIONS.
    ------------------------------------------------
                                                   Max.-Head-Change                        Max.-Flux-Residual
  Residual-Control   Outer-Iter.   Inner-Iter.     Column Row Layer    Max.-Head-Change    Column Row Layer    Max.-Flux-Residual            L2-New               L2-Old           Solver-Max-Delh
          0                 1           5             6    7     4      -0.1793400150E-02      12   10    1       0.2370340798E+01      0.5189227351E+01      0.6282207512E-01     -0.1793400150E-02
          0                 2           3             6    7     4       0.1553781654E-03      12   10    1      -0.2276401527E+00      0.5217726099E+00      0.5189227351E+01      0.1553781654E-03
          0                 3           2             6    7     4       0.7775069888E-05      18   20    1       0.1079164317E-01      0.3440058521E-01      0.5217726099E+00      0.7775069888E-05

    ------------------------------------------------
       NWT REQUIRED            3 OUTER ITERATIONS 
       AND A TOTAL OF         10 INNER ITERATIONS.
    ------------------------------------------------
                                                   Max.-Head-Change                        Max.-Flux-Residual
  Residual-Control   Outer-Iter.   Inner-Iter.     Column Row Layer    Max.-Head-Change    Column Row Layer    Max.-Flux-Residual            L2-New               L2-Old           Solver-Max-Delh
          0                 1           4             6    7     4      -0.8729280681E-03      12   10    1       0.1274117707E+01      0.2669180043E+01      0.3440058521E-01     -0.8729280681E-03
          0                 2           3             6    7     4       0.7566361542E-04      12   10    1      -0.1214220914E+00      0.2671225843E+00      0.2669180043E+01      0.7566361542E-04

    ------------------------------------------------
       NWT REQUIRED            2 OUTER ITERATIONS 
       AND A TOTAL OF          7 INNER ITERATIONS.
    ------------------------------------------------
                                                   Max.-Head-Change                        Max.-Flux-Residual
  Residual-Control   Outer-Iter.   Inner-Iter.     Column Row Layer    Max.-Head-Change    Column Row Layer    Max.-Flux-Residual            L2-New               L2-Old           Solver-Max-Delh
          0                 1           4             6    6     4      -0.3836366974E-03      12   10    1       0.6232518455E+00      0.1361131847E+01      0.2671225843E+00     -0.3836366974E-03
          0                 2           3             6    6     4       0.3348820139E-04      12   10    1      -0.6114984106E-01      0.1376972983E+00      0.1361131847E+01      0.3348820139E-04

    ------------------------------------------------
       NWT REQUIRED            2 OUTER ITERATIONS 
       AND A TOTAL OF          7 INNER ITERATIONS.
    ------------------------------------------------

 OUTPUT CONTROL FOR STRESS PERIOD     15   TIME STEP     1
    SAVE BUDGET
 UBDSV1 SAVING "         STORAGE" ON UNIT  70 AT TIME STEP    1, STRESS PERIOD  15
 UBDSV2 SAVING "   CONSTANT HEAD" ON UNIT  70 AT TIME STEP    1, STRESS PERIOD  15
 UBDSV1 SAVING "FLOW RIGHT FACE " ON UNIT  70 AT TIME STEP    1, STRESS PERIOD  15
 UBDSV1 SAVING "FLOW FRONT FACE " ON UNIT  70 AT TIME STEP    1, STRESS PERIOD  15
 UBDSV1 SAVING "FLOW LOWER FACE " ON UNIT  70 AT TIME STEP    1, STRESS PERIOD  15
 UBDSV4 SAVING " HEAD DEP BOUNDS" ON UNIT  70 AT TIME STEP    1, STRESS PERIOD  15
 UBDSV4 SAVING "  STREAM LEAKAGE" ON UNIT  70 AT TIME STEP    1, STRESS PERIOD  15



 UBDSV4 SAVING "             MNW" ON UNIT  70 AT TIME STEP    1, STRESS PERIOD  15
 
 
 
 
 
 
 
 
 UBDSV3 SAVING "FARM  NET  RECH." ON UNIT  70 AT TIME STEP    1, STRESS PERIOD  15
 UBDSV4 SAVING " GHOST-NODE FLUX" ON UNIT  70 AT TIME STEP    1, STRESS PERIOD  15
 UBDSV4 SAVING " GHOST-NODE FLUX" ON UNIT  70 AT TIME STEP    1, STRESS PERIOD  15
 UBDSV4 SAVING " GHOST-NODE FLUX" ON UNIT  70 AT TIME STEP    1, STRESS PERIOD  15
 
 SOLVING FOR HEAD 
                                                   Max.-Head-Change                        Max.-Flux-Residual
  Residual-Control   Outer-Iter.   Inner-Iter.     Column Row Layer    Max.-Head-Change    Column Row Layer    Max.-Flux-Residual            L2-New               L2-Old           Solver-Max-Delh
          0                 1           8             5    1     4       0.2873579331E+00       6    1    1       0.7396890512E+02      0.6690242941E+03      0.1376972983E+00      0.2873579331E+00
          0                 2           6             2    6     4      -0.3563479960E-01      12   11    1       0.3330151308E+02      0.8679582684E+02      0.6690242941E+03     -0.3563479960E-01
          0                 3           5             2    6     3      -0.4188052848E-02       2    6    1      -0.6324864213E+01      0.1132395223E+02      0.8679582684E+02     -0.4188052848E-02
          0                 4           4             2    8     3      -0.1063430056E-02       2    8    1      -0.2237127935E+01      0.3702757893E+01      0.1132395223E+02     -0.1063430056E-02
          0                 5           4             2    8     3      -0.3191383549E-03       2    8    1      -0.7160002781E+00      0.1147954500E+01      0.3702757893E+01     -0.3191383549E-03
          0                 6           3             2    8     3      -0.9802022375E-04       2    8    1      -0.2239456624E+00      0.3524233593E+00      0.1147954500E+01     -0.9802022375E-04

    ------------------------------------------------
       NWT REQUIRED            6 OUTER ITERATIONS 
       AND A TOTAL OF         30 INNER ITERATIONS.
    ------------------------------------------------
                                                   Max.-Head-Change                        Max.-Flux-Residual
  Residual-Control   Outer-Iter.   Inner-Iter.     Column Row Layer    Max.-Head-Change    Column Row Layer    Max.-Flux-Residual            L2-New               L2-Old           Solver-Max-Delh
          0                 1           6             9    9     4       0.2433566829E-01       9   10    1      -0.3194919659E+02      0.6048418787E+02      0.3524233593E+00      0.2433566829E-01
          0                 2           5            12   11     1      -0.9509748335E-02      12   11    1      -0.2773949567E+02      0.4740143055E+02      0.6048418787E+02     -0.9509748335E-02
          0                 3           4            12   11     1       0.7352683656E-03      12   11    1       0.3119182845E+01      0.4885936033E+01      0.4740143055E+02      0.7352683656E-03
          0                 4           2            12   11     2      -0.2093312610E-04      12   11    1       0.9598205239E-01      0.1877003427E+00      0.4885936033E+01     -0.2093312610E-04

    ------------------------------------------------
       NWT REQUIRED            4 OUTER ITERATIONS 
       AND A TOTAL OF         17 INNER ITERATIONS.
    ------------------------------------------------
                                                   Max.-Head-Change                        Max.-Flux-Residual
  Residual-Control   Outer-Iter.   Inner-Iter.     Column Row Layer    Max.-Head-Change    Column Row Layer    Max.-Flux-Residual            L2-New               L2-Old           Solver-Max-Delh
          0                 1           6             8    5     2      -0.1387892672E-01      12   10    1      -0.1954369158E+02      0.3322334135E+02      0.1877003427E+00     -0.1387892672E-01
          1                 1           0             8    5     2      -0.9715248535E-02      12   11    1      -0.3693847849E+02      0.5880204329E+02      0.3322334135E+02     -0.1387892672E-01
          0                 2           5            12   11     1      -0.1277570068E-01      12   11    1      -0.3698275103E+02      0.6125996019E+02      0.5880204329E+02     -0.1277570068E-01
          0                 3           4            12   11     1       0.1003106859E-02      12   12    1       0.4503311823E+01      0.8106742958E+01      0.6125996019E+02      0.1003106859E-02
          0                 4           3            12   13     1      -0.3706984768E-04      12   13    1      -0.1992133510E+00      0.3291874660E+00      0.8106742958E+01     -0.3706984768E-04

    ------------------------------------------------
       NWT REQUIRED            4 OUTER ITERATIONS 
       AND A TOTAL OF         18 INNER ITERATIONS.
    ------------------------------------------------
                                                   Max.-Head-Change                        Max.-Flux-Residual
  Residual-Control   Outer-Iter.   Inner-Iter.     Column Row Layer    Max.-Head-Change    Column Row Layer    Max.-Flux-Residual            L2-New               L2-Old           Solver-Max-Delh
          0                 1           5             9    5     3      -0.9343710239E-02       7    5    1      -0.7239814219E+01      0.1659109382E+02      0.3291874660E+00     -0.9343710239E-02
          0                 2           4             9    5     3       0.8060948602E-03       7    5    1       0.7232570415E+00      0.1756032631E+01      0.1659109382E+02      0.8060948602E-03
          0                 3           3             9    5     3       0.4081267205E-04      17   16    1       0.8559324942E-01      0.1221255355E+00      0.1756032631E+01      0.4081267205E-04

    ------------------------------------------------
       NWT REQUIRED            3 OUTER ITERATIONS 
       AND A TOTAL OF         12 INNER ITERATIONS.
    ------------------------------------------------
                                                   Max.-Head-Change                        Max.-Flux-Residual
  Residual-Control   Outer-Iter.   Inner-Iter.     Column Row Layer    Max.-Head-Change    Column Row Layer    Max.-Flux-Residual            L2-New               L2-Old           Solver-Max-Delh
          0                 1           5             9    5     3      -0.5488977111E-02       7    5    1      -0.3576173081E+01      0.8582795914E+01      0.1221255355E+00     -0.5488977111E-02
          0                 2           4             9    5     3       0.4738645060E-03      17   16    1       0.6016049036E+00      0.1048228684E+01      0.8582795914E+01      0.4738645060E-03
          0                 3           2            17   16     1       0.2379627157E-04      17   16    1       0.8593420463E-01      0.1015019245E+00      0.1048228684E+01      0.2379627157E-04

    ------------------------------------------------
       NWT REQUIRED            3 OUTER ITERATIONS 
       AND A TOTAL OF         11 INNER ITERATIONS.
    ------------------------------------------------
                                                   Max.-Head-Change                        Max.-Flux-Residual
  Residual-Control   Outer-Iter.   Inner-Iter.     Column Row Layer    Max.-Head-Change    Column Row Layer    Max.-Flux-Residual            L2-New               L2-Old           Solver-Max-Delh
          0                 1           5             9    9     4      -0.2971802577E-02      12   10    1       0.1618429566E+01      0.4177494198E+01      0.1015019245E+00     -0.2971802577E-02
          0                 2           4             9    9     4       0.2570148890E-03      17   16    1       0.3982215920E+00      0.5791805239E+00      0.4177494198E+01      0.2570148890E-03
          0                 3           2            17   16     1       0.1600778952E-04      17   16    1       0.5654717481E-01      0.6673555422E-01      0.5791805239E+00      0.1600778952E-04

    ------------------------------------------------
       NWT REQUIRED            3 OUTER ITERATIONS 
       AND A TOTAL OF         11 INNER ITERATIONS.
    ------------------------------------------------
                                                   Max.-Head-Change                        Max.-Flux-Residual
  Residual-Control   Outer-Iter.   Inner-Iter.     Column Row Layer    Max.-Head-Change    Column Row Layer    Max.-Flux-Residual            L2-New               L2-Old           Solver-Max-Delh
          0                 1           4             6    7     4      -0.1246969077E-02      12   10    1       0.1034763307E+01      0.2184641323E+01      0.6673555422E-01     -0.1246969077E-02
          0                 2           3             6    7     4       0.1079696514E-03      17   16    1       0.2371391250E+00      0.3194624724E+00      0.2184641323E+01      0.1079696514E-03
          0                 3           1             6    7     4       0.4686353243E-05      16   16    1       0.1076907478E-01      0.2503287483E-01      0.3194624724E+00      0.4686353243E-05

    ------------------------------------------------
       NWT REQUIRED            3 OUTER ITERATIONS 
       AND A TOTAL OF          8 INNER ITERATIONS.
    ------------------------------------------------
                                                   Max.-Head-Change                        Max.-Flux-Residual
  Residual-Control   Outer-Iter.   Inner-Iter.     Column Row Layer    Max.-Head-Change    Column Row Layer    Max.-Flux-Residual            L2-New               L2-Old           Solver-Max-Delh
          0                 1           4             6    6     4      -0.6203271301E-03      12   10    1       0.5888750763E+00      0.1221427335E+01      0.2503287483E-01     -0.6203271301E-03
          0                 2           3             6    6     4       0.5353360302E-04      17   16    1       0.1334806243E+00      0.1817336648E+00      0.1221427335E+01      0.5353360302E-04

    ------------------------------------------------
       NWT REQUIRED            2 OUTER ITERATIONS 
       AND A TOTAL OF          7 INNER ITERATIONS.
    ------------------------------------------------
                                                   Max.-Head-Change                        Max.-Flux-Residual
  Residual-Control   Outer-Iter.   Inner-Iter.     Column Row Layer    Max.-Head-Change    Column Row Layer    Max.-Flux-Residual            L2-New               L2-Old           Solver-Max-Delh
          0                 1           3             6    6     4      -0.2721559894E-03      12   10    1       0.3008096842E+00      0.6457031619E+00      0.1817336648E+00     -0.2721559894E-03
          0                 2           2             6    6     4       0.2303129346E-04      17   16    1       0.8120360260E-01      0.1049600172E+00      0.6457031619E+00      0.2303129346E-04

    ------------------------------------------------
       NWT REQUIRED            2 OUTER ITERATIONS 
       AND A TOTAL OF          5 INNER ITERATIONS.
    ------------------------------------------------

 OUTPUT CONTROL FOR STRESS PERIOD     15   TIME STEP     2
    PRINT BUDGET
    SAVE HEAD FOR ALL LAYERS
    SAVE BUDGET
 UBDSV1 SAVING "         STORAGE" ON UNIT  70 AT TIME STEP    2, STRESS PERIOD  15
 UBDSV2 SAVING "   CONSTANT HEAD" ON UNIT  70 AT TIME STEP    2, STRESS PERIOD  15
 UBDSV1 SAVING "FLOW RIGHT FACE " ON UNIT  70 AT TIME STEP    2, STRESS PERIOD  15
 UBDSV1 SAVING "FLOW FRONT FACE " ON UNIT  70 AT TIME STEP    2, STRESS PERIOD  15
 UBDSV1 SAVING "FLOW LOWER FACE " ON UNIT  70 AT TIME STEP    2, STRESS PERIOD  15
 UBDSV4 SAVING " HEAD DEP BOUNDS" ON UNIT  70 AT TIME STEP    2, STRESS PERIOD  15
 UBDSV4 SAVING "  STREAM LEAKAGE" ON UNIT  70 AT TIME STEP    2, STRESS PERIOD  15



 UBDSV4 SAVING "             MNW" ON UNIT  70 AT TIME STEP    2, STRESS PERIOD  15
 
 
 
 
 
 
 
 
 UBDSV3 SAVING "FARM  NET  RECH." ON UNIT  70 AT TIME STEP    2, STRESS PERIOD  15
 UBDSV4 SAVING " GHOST-NODE FLUX" ON UNIT  70 AT TIME STEP    2, STRESS PERIOD  15
 UBDSV4 SAVING " GHOST-NODE FLUX" ON UNIT  70 AT TIME STEP    2, STRESS PERIOD  15
 UBDSV4 SAVING " GHOST-NODE FLUX" ON UNIT  70 AT TIME STEP    2, STRESS PERIOD  15

 HEAD WILL BE SAVED ON UNIT   22 AT END OF TIME STEP     2, STRESS PERIOD     15
1
  VOLUMETRIC BUDGET FOR ENTIRE MODEL AT END OF TIME STEP    2 IN STRESS PERIOD     15
  ------------------------------------------------------------------------------

     CUMULATIVE VOLUMES      L**3       RATES FOR THIS TIME STEP      L**3/T
     ------------------                 ------------------------

           IN:                                      IN:
           ---                                      ---
             STORAGE =    12471121.0000               STORAGE =        2923.7202
       CONSTANT HEAD =           0.0000         CONSTANT HEAD =           0.0000
     HEAD DEP BOUNDS =     3294416.0000       HEAD DEP BOUNDS =        6480.7881
      STREAM LEAKAGE =     7954154.5000        STREAM LEAKAGE =       12315.3154
                 MNW =       36021.4414                   MNW =         113.7063
          FARM WELLS =           0.0000            FARM WELLS =           0.0000
    FARM  NET  RECH. =     9747226.0000      FARM  NET  RECH. =        8895.1768
     GHOST-NODE FLUX =     2616600.5000       GHOST-NODE FLUX =        7446.2490

            TOTAL IN =    36119540.0000              TOTAL IN =       38174.9570

          OUT:                                     OUT:
          ----                                     ----
             STORAGE =     8020944.0000               STORAGE =        6212.6636
       CONSTANT HEAD =           0.0000         CONSTANT HEAD =           0.0000
     HEAD DEP BOUNDS =     7812259.5000       HEAD DEP BOUNDS =       17797.0879
      STREAM LEAKAGE =      624640.7500        STREAM LEAKAGE =        2712.7544
                 MNW =     3026392.2500                   MNW =         113.7063
          FARM WELLS =     3852822.5000            FARM WELLS =           0.0000
    FARM  NET  RECH. =     1429936.6250      FARM  NET  RECH. =        5670.1455
     GHOST-NODE FLUX =    11352545.0000       GHOST-NODE FLUX =        5668.5552

           TOTAL OUT =    36119540.0000             TOTAL OUT =       38174.9141

            IN - OUT =           0.0000              IN - OUT =       4.2969E-02

 PERCENT DISCREPANCY =           0.00     PERCENT DISCREPANCY =           0.00






          TIME SUMMARY AT END OF TIME STEP     2 IN STRESS PERIOD     15
                    SECONDS     MINUTES      HOURS       DAYS        YEARS
                    -----------------------------------------------------------
   TIME STEP LENGTH 1.31414E+06  21902.      365.04      15.210     4.16427E-02
 STRESS PERIOD TIME 2.62829E+06  43805.      730.08      30.420     8.32854E-02
         TOTAL TIME 3.94243E+07 6.57072E+05  10951.      456.30      1.2493    
1
1
                            STRESS PERIOD NO.     16, LENGTH =   30.42000    
                            -----------------------------------------------

                              NUMBER OF TIME STEPS =     2

                               MULTIPLIER FOR DELT =     1.000

                            INITIAL TIME STEP SIZE =   15.21000    

 REUSING NON-PARAMETER GHB CELLS FROM LAST STRESS PERIOD

     92 GHB CELLS

 REUSING STREAM SEGMENT DATA FROM LAST STRESS PERIOD

 REUSING MNW7  FROM LAST STRESS PERIOD

 Parameter:  WELLS1
 WELL NO. LAYER    ROW    COL  F-WELL ID    FARM ID         QMAX         QMAXRESET       
 ----------------------------------------------------------------------------------------
       1      1      5      6          1          1      5.0000E+03              0
       2      1      8      7          2          1      5.0000E+03              0
       3      1      8      9          3          1      5.0000E+03              0
       4      1      5      9          4          2      3.0000E+03              0
       5      1      6     10          5          2      2.0000E+03              0
       6      1      7     11          6          2      1.0000E+03              0
       7      1     18      3          7          3      2.0000E+03              0
       8      1     21      3          8          3      4.0000E+03              0
       9      1     18     19          9          4      3.0000E+03              0
      10      1     21     19         10          4      5.0000E+03              0
      11      0      6      2        -11          5      5.0000E+03              1
      12      0      8      2        -12          5      5.0000E+03              1
      13      0     10      2        -13          5      5.0000E+03              1
      14      0      3     19        -14          6      1.0000E+04              1
      15      0      6     17        -15          6      6.0000E+03              1

 NUMBER OF ACTIVE FARM WELLS:       15

 THE SINGLE LAYER FMP- OR MNW- WELL IN ROW      8 AND COLUMN      7 IS LOCATED IN AN INACTIVE CELL (IBOUND=0) AND HAS BEEN EXCLUDED FROM THE TOTAL MAXIMUM CAPACITY PER FARM

 THE SINGLE LAYER FMP- OR MNW- WELL IN ROW      8 AND COLUMN      9 IS LOCATED IN AN INACTIVE CELL (IBOUND=0) AND HAS BEEN EXCLUDED FROM THE TOTAL MAXIMUM CAPACITY PER FARM

 THE SINGLE LAYER FMP- OR MNW- WELL IN ROW      6 AND COLUMN     10 IS LOCATED IN AN INACTIVE CELL (IBOUND=0) AND HAS BEEN EXCLUDED FROM THE TOTAL MAXIMUM CAPACITY PER FARM

 THE SINGLE LAYER FMP- OR MNW- WELL IN ROW      7 AND COLUMN     11 IS LOCATED IN AN INACTIVE CELL (IBOUND=0) AND HAS BEEN EXCLUDED FROM THE TOTAL MAXIMUM CAPACITY PER FARM

 FARM-ID  NUMBER OF WELLS PER FARM  TOTAL MAX.CAPACITY PER FARM
       1                         1                    5000.0000
       2                         1                    3000.0000
       3                         2                    6000.0000
       4                         2                    8000.0000
       5                         3                   15000.0000
       6                         2                   16000.0000
       7                         0                       0.0000
       8                         0                       0.0000

 READING LIST ON UNIT   20 WITH FILE NAME: C:\MF_OWHM_Release_Package\MF_OWHM_v1_0\examples\test-run-owhm-lgr\fmp-lgr-nwt\DATA_FMP\OFE.in
 LIST SCALING FACTOR= 0.95000    
 (THE SCALE FACTOR WAS APPLIED TO FIELDS   2 -   7)

 Reading list on unit   30

 Reading list on unit   40

  REF. EVAPOTRANSPIRATION =  4.310000E-03

 READING LIST ON UNIT   50 WITH FILE NAME: C:\MF_OWHM_Release_Package\MF_OWHM_v1_0\examples\test-run-owhm-lgr\fmp-lgr-nwt\DATA_FMP\FTE.in

Transpiratory and Evaporative Fractions of Crop Consumptive Use
    % Transpiration % Evap. for Precip. % Evap. for Irrig.
    1          0.485          0.515          0.500
    2          0.908          0.092          0.092
    3          0.000          1.000          1.000
    4          0.125          0.875          0.875
    5          0.887          0.113          0.000
    6          0.700          0.300          0.000

 READING LIST ON UNIT   60 WITH FILE NAME: C:\MF_OWHM_Release_Package\MF_OWHM_v1_0\examples\test-run-owhm-lgr\fmp-lgr-nwt\DATA_FMP\INEFFSW.in

FRACTIONS OF IN-EFFICIENT LOSSES TO SW-RUNOFF FROM 
     PRECIPITATION:  IRRIGATION:
    1          0.500          0.600
    2          0.400          0.300
    3          0.600          0.500
    4          0.700          0.600
    5          0.500          0.000
    6          0.300          0.000

       PRECIPITATION FLUX =  6.100000E-04

 OPENING FILE WITH FILENAME: ./DATA_FMP/NRDV.in
 AND UNIT NUMBER: -162
 READING SCALE FACTOR LIST ON UNIT   80 ASSOCIATED WITH FILE: C:\MF_OWHM_Release_Package\MF_OWHM_v1_0\examples\test-run-owhm-lgr\fmp-lgr-nwt\DATA_FMP\NRDV.in
 FIELD     SCALE FACTOR
     1       1.0000    
     2       4.0000    
     3       1.0000    
     4       1.0000    

UNRANKED LIST OF NON-ROUTED DELIVERIES TO FARMS [L3]:
TYPE:             1

FARM-ID  VOLUME:
      1   6.000E+04
      2   6.000E+04
      3   8.000E+04
      4   4.000E+04
      5   4.000E+04
      6   8.000E+04
      7   0.000E+00
      8   0.000E+00

FARM-ID  PRIORITY RANK OF NRD-TYPE:
      1           1
      2           1
      3           1
      4           1
      5           1
      6           1
      7           1
      8           1

FARM-ID  USE-FLAG:
         0 = SUFFICIENT USE
         1 = ABSOLUTE USE (RECHARGE SURPLUS BACK INTO CANAL)
         2 = ABSOLUTE USE (INJECT SURPLUS INTO FARM-WELLS)
      1           0
      2           0
      3           0
      4           0
      5           0
      6           0
      7           0
      8           0

LIST OF NON-ROUTED DELIVERIES IN RANKED SEQUENCE [L3/T]:

FARM-ID  RATE:
      1   1.972E+03
      2   1.972E+03
      3   2.630E+03
      4   1.315E+03
      5   1.315E+03
      6   2.630E+03
      7   0.000E+00
      8   0.000E+00

FARM-ID  USE-FLAG:
         0 = SUFFICIENT USE
         1 = ABSOLUTE USE (RECHARGE SURPLUS BACK INTO CANAL)
         2 = ABSOLUTE USE (INJECT SURPLUS INTO FARM-WELLS)
      1           0
      2           0
      3           0
      4           0
      5           0
      6           0
      7           0
      8           0

SURFACE-WATER FARM ALLOTMENT HEIGHT [L]:   0.013
 
 SOLVING FOR HEAD 
                                                   Max.-Head-Change                        Max.-Flux-Residual
  Residual-Control   Outer-Iter.   Inner-Iter.     Column Row Layer    Max.-Head-Change    Column Row Layer    Max.-Flux-Residual            L2-New               L2-Old           Solver-Max-Delh
          0                 1           8             8   10     1      -0.3796708497E+00       8   10    1      -0.3813526944E+03      0.1427851100E+04      0.1049600172E+00     -0.3796708497E+00
          1                 1           0             8   10     1      -0.2657695903E+00       6    5    1      -0.5003284152E+04      0.8143523934E+04      0.1427851100E+04     -0.3796708497E+00
          2                 1           0             8   10     1      -0.1860387100E+00       6    5    1      -0.4992134564E+04      0.8019597178E+04      0.8143523934E+04     -0.3796708497E+00
          3                 1           0             8   10     1      -0.1302270948E+00       6    5    1      -0.4984317825E+04      0.7957617958E+04      0.8019597178E+04     -0.3796708497E+00
          4                 1           0             8   10     1      -0.9115896480E-01       6    5    1      -0.4978839940E+04      0.7928362674E+04      0.7957617958E+04     -0.3796708497E+00
          5                 1           0             8   10     1      -0.6381127427E-01       6    5    1      -0.4975003090E+04      0.7914167616E+04      0.7928362674E+04     -0.3796708497E+00
          6                 1           0             8   10     1      -0.4466789123E-01       6    5    1      -0.4972315255E+04      0.7908163879E+04      0.7914167616E+04     -0.3796708497E+00
          7                 1           0             8   10     1      -0.3126752333E-01       6    5    1      -0.4970433572E+04      0.7905354671E+04      0.7908163879E+04     -0.3796708497E+00
          8                 1           0             8   10     1      -0.2188726596E-01       6    5    1      -0.4969115915E+04      0.7903704042E+04      0.7905354671E+04     -0.3796708497E+00
          9                 1           0             8   10     1      -0.1532108591E-01       6    5    1      -0.4968193472E+04      0.7903016395E+04      0.7903704042E+04     -0.3796708497E+00
                                                   Max.-Head-Change                        Max.-Flux-Residual
  Residual-Control   Outer-Iter.   Inner-Iter.     Column Row Layer    Max.-Head-Change    Column Row Layer    Max.-Flux-Residual            L2-New               L2-Old           Solver-Max-Delh
         10                 1           0             8   10     1      -0.1072475995E-01       6    5    1      -0.4967546970E+04      0.7902768507E+04      0.7903016395E+04     -0.3796708497E+00
         11                 1           0             8   10     1      -0.7507331840E-02       6    5    1      -0.4967095325E+04      0.7902708383E+04      0.7902768507E+04     -0.3796708497E+00
          0                 2           9            19    3     3      -0.9315423735E+01       6    5    1      -0.4966778775E+04      0.7902725287E+04      0.7902708383E+04     -0.9315423735E+01
          0                 3           8            19    3     3      -0.2264487152E+01      19    3    2      -0.7053490984E+03      0.1539571707E+04      0.7902725287E+04     -0.2264487152E+01
          0                 4           7            19    3     3      -0.5459764040E+00      19    3    2      -0.1713862024E+03      0.3036821721E+03      0.1539571707E+04     -0.5459764040E+00
          0                 5           6            19    3     3      -0.1314007341E+00      19    3    2      -0.4142803814E+02      0.7768966501E+02      0.3036821721E+03     -0.1314007341E+00
          0                 6           6            19    3     3      -0.3155374278E-01       2    8    1      -0.1029505921E+02      0.2122359362E+02      0.7768966501E+02     -0.3155374278E-01
          0                 7           5            19    3     3      -0.7565305064E-02       2    8    1      -0.3180627394E+01      0.6011729601E+01      0.2122359362E+02     -0.7565305064E-02
          0                 8           4            19    3     3      -0.1811142540E-02       2    8    1      -0.9800444887E+00      0.1746741430E+01      0.6011729601E+01     -0.1811142540E-02
          0                 9           3            19    3     3      -0.4334639578E-03       2    8    1      -0.3012669082E+00      0.5170993294E+00      0.1746741430E+01     -0.4334639578E-03
                                                   Max.-Head-Change                        Max.-Flux-Residual
  Residual-Control   Outer-Iter.   Inner-Iter.     Column Row Layer    Max.-Head-Change    Column Row Layer    Max.-Flux-Residual            L2-New               L2-Old           Solver-Max-Delh
          0                10           3            19    3     3      -0.1035393458E-03       2    8    1      -0.9281446086E-01      0.1564333752E+00      0.5170993294E+00     -0.1035393458E-03
          0                11           2            19    3     3      -0.2438922660E-04       2    8    1      -0.2793239465E-01      0.4909617843E-01      0.1564333752E+00     -0.2438922660E-04

    ------------------------------------------------
       NWT REQUIRED           11 OUTER ITERATIONS 
       AND A TOTAL OF         61 INNER ITERATIONS.
    ------------------------------------------------
                                                   Max.-Head-Change                        Max.-Flux-Residual
  Residual-Control   Outer-Iter.   Inner-Iter.     Column Row Layer    Max.-Head-Change    Column Row Layer    Max.-Flux-Residual            L2-New               L2-Old           Solver-Max-Delh
          0                 1           8            19    3     3      -0.1337865164E+01       9    5    1      -0.1287818686E+04      0.1531527583E+04      0.4909617843E-01     -0.1337865164E+01
          0                 2           6            19    3     3       0.8416409399E-01       9    5    1       0.1204940065E+03      0.1739280841E+03      0.1531527583E+04      0.8416409399E-01
          0                 3           5            19    3     3       0.1285495949E-01       9    5    1       0.5982922943E+01      0.1124765788E+02      0.1739280841E+03      0.1285495949E-01
          0                 4           4            19    3     3       0.3060643421E-02      19    3    2       0.8892636170E+00      0.1570736622E+01      0.1124765788E+02      0.3060643421E-02
          0                 5           4            19    3     3       0.8266132979E-03      19    3    2       0.2551472687E+00      0.4246628059E+00      0.1570736622E+01      0.8266132979E-03
          0                 6           3            19    3     3       0.2250627691E-03      19    3    2       0.7012153628E-01      0.1169687681E+00      0.4246628059E+00      0.2250627691E-03
          0                 7           2            19    3     3       0.6058541917E-04      19    3    2       0.1940720495E-01      0.3655531711E-01      0.1169687681E+00      0.6058541917E-04

    ------------------------------------------------
       NWT REQUIRED            7 OUTER ITERATIONS 
       AND A TOTAL OF         32 INNER ITERATIONS.
    ------------------------------------------------
                                                   Max.-Head-Change                        Max.-Flux-Residual
  Residual-Control   Outer-Iter.   Inner-Iter.     Column Row Layer    Max.-Head-Change    Column Row Layer    Max.-Flux-Residual            L2-New               L2-Old           Solver-Max-Delh
          0                 1           7             9    5     1       0.2613734514E+00       9    5    1       0.4091520031E+03      0.4357978425E+03      0.3655531711E-01      0.2613734514E+00
          0                 2           6             9    5     1      -0.2282552539E-01      12   11    1      -0.4658026007E+02      0.8543898145E+02      0.4357978425E+03     -0.2282552539E-01
          0                 3           4            19    3     3      -0.1817811526E-02      12   11    1       0.3858890428E+01      0.6136098450E+01      0.8543898145E+02     -0.1817811526E-02
          0                 4           3            19    3     3      -0.3686868136E-03      13   16    1      -0.1625247843E+00      0.2662145407E+00      0.6136098450E+01     -0.3686868136E-03
          0                 5           2            19    3     3      -0.9156418238E-04      13   16    1      -0.3500552243E-01      0.6581449426E-01      0.2662145407E+00     -0.9156418238E-04

    ------------------------------------------------
       NWT REQUIRED            5 OUTER ITERATIONS 
       AND A TOTAL OF         22 INNER ITERATIONS.
    ------------------------------------------------
                                                   Max.-Head-Change                        Max.-Flux-Residual
  Residual-Control   Outer-Iter.   Inner-Iter.     Column Row Layer    Max.-Head-Change    Column Row Layer    Max.-Flux-Residual            L2-New               L2-Old           Solver-Max-Delh
          0                 1           6             9    9     1       0.4414861496E-01       9    9    1       0.6264405425E+02      0.1209220469E+03      0.6581449426E-01      0.4414861496E-01
          0                 2           5             9    9     1      -0.3715257986E-02       9    9    1      -0.6272214623E+01      0.1218677172E+02      0.1209220469E+03     -0.3715257986E-02
          0                 3           4            19    3     3      -0.2261826916E-03       9    9    1      -0.3134745113E+00      0.6367470101E+00      0.1218677172E+02     -0.2261826916E-03
          0                 4           2            19    3     3      -0.5233727006E-04      20    9    1      -0.3478772100E-01      0.6959686416E-01      0.6367470101E+00     -0.5233727006E-04

    ------------------------------------------------
       NWT REQUIRED            4 OUTER ITERATIONS 
       AND A TOTAL OF         17 INNER ITERATIONS.
    ------------------------------------------------
                                                   Max.-Head-Change                        Max.-Flux-Residual
  Residual-Control   Outer-Iter.   Inner-Iter.     Column Row Layer    Max.-Head-Change    Column Row Layer    Max.-Flux-Residual            L2-New               L2-Old           Solver-Max-Delh
          0                 1           6             9    9     1       0.3553081217E-01       9    9    1       0.4635924731E+02      0.7028878833E+02      0.6959686416E-01      0.3553081217E-01
          0                 2           5             9    9     1      -0.2970368596E-02       9    9    1      -0.4641590965E+01      0.7055766354E+01      0.7028878833E+02     -0.2970368596E-02
          0                 3           3             9    9     1      -0.1553055142E-03       9    9    1      -0.2320773643E+00      0.3615461054E+00      0.7055766354E+01     -0.1553055142E-03
          0                 4           2            20    9     1      -0.1029605829E-04      20    9    1      -0.3071912244E-01      0.4880571593E-01      0.3615461054E+00     -0.1029605829E-04

    ------------------------------------------------
       NWT REQUIRED            4 OUTER ITERATIONS 
       AND A TOTAL OF         16 INNER ITERATIONS.
    ------------------------------------------------
                                                   Max.-Head-Change                        Max.-Flux-Residual
  Residual-Control   Outer-Iter.   Inner-Iter.     Column Row Layer    Max.-Head-Change    Column Row Layer    Max.-Flux-Residual            L2-New               L2-Old           Solver-Max-Delh
          0                 1           6             9    9     1       0.1730697943E-01       9    9    1       0.2125035120E+02      0.3776637241E+02      0.4880571593E-01      0.1730697943E-01
          0                 2           4             9    9     1      -0.1439560659E-02       9    9    1      -0.2126335501E+01      0.3797240801E+01      0.3776637241E+02     -0.1439560659E-02
          0                 3           3             9    9     1      -0.7582311150E-04       9    9    1      -0.1065274469E+00      0.2002433245E+00      0.3797240801E+01     -0.7582311150E-04

    ------------------------------------------------
       NWT REQUIRED            3 OUTER ITERATIONS 
       AND A TOTAL OF         13 INNER ITERATIONS.
    ------------------------------------------------
                                                   Max.-Head-Change                        Max.-Flux-Residual
  Residual-Control   Outer-Iter.   Inner-Iter.     Column Row Layer    Max.-Head-Change    Column Row Layer    Max.-Flux-Residual            L2-New               L2-Old           Solver-Max-Delh
          0                 1           5            12   10     1       0.5322146962E-02      12   10    1       0.1261429578E+02      0.1840677855E+02      0.2002433245E+00      0.5322146962E-02
          0                 2           4            12   10     1      -0.4368564322E-03      12   10    1      -0.1233034079E+01      0.1868582500E+01      0.1840677855E+02     -0.4368564322E-03
          0                 3           2            19    3     3       0.8644209429E-04      12   10    1      -0.6375411863E-01      0.1136298797E+00      0.1868582500E+01      0.8644209429E-04

    ------------------------------------------------
       NWT REQUIRED            3 OUTER ITERATIONS 
       AND A TOTAL OF         11 INNER ITERATIONS.
    ------------------------------------------------
                                                   Max.-Head-Change                        Max.-Flux-Residual
  Residual-Control   Outer-Iter.   Inner-Iter.     Column Row Layer    Max.-Head-Change    Column Row Layer    Max.-Flux-Residual            L2-New               L2-Old           Solver-Max-Delh
          0                 1           5            12   10     1       0.2460857225E-02      12   10    1       0.5664313681E+01      0.8276525048E+01      0.1136298797E+00      0.2460857225E-02
          0                 2           4            12   10     1      -0.2993371094E-03      12   10    1      -0.1077824863E+01      0.1261294545E+01      0.8276525048E+01     -0.2993371094E-03
          0                 3           2            12   10     1      -0.1345607116E-04      12   10    1      -0.5091927201E-01      0.7752848120E-01      0.1261294545E+01     -0.1345607116E-04

    ------------------------------------------------
       NWT REQUIRED            3 OUTER ITERATIONS 
       AND A TOTAL OF         11 INNER ITERATIONS.
    ------------------------------------------------
                                                   Max.-Head-Change                        Max.-Flux-Residual
  Residual-Control   Outer-Iter.   Inner-Iter.     Column Row Layer    Max.-Head-Change    Column Row Layer    Max.-Flux-Residual            L2-New               L2-Old           Solver-Max-Delh
          0                 1           4             9    9     2      -0.1501370555E-02       9    9    1      -0.2279800068E+01      0.3680035255E+01      0.7752848120E-01     -0.1501370555E-02
          0                 2           3             9    9     2       0.1294090677E-03       9    9    1       0.2282357816E+00      0.4057826850E+00      0.3680035255E+01      0.1294090677E-03
          0                 3           2             9    9     2       0.6363798424E-05      10   13    1       0.1423103723E-01      0.4103184299E-01      0.4057826850E+00      0.6363798424E-05

    ------------------------------------------------
       NWT REQUIRED            3 OUTER ITERATIONS 
       AND A TOTAL OF          9 INNER ITERATIONS.
    ------------------------------------------------
                                                   Max.-Head-Change                        Max.-Flux-Residual
  Residual-Control   Outer-Iter.   Inner-Iter.     Column Row Layer    Max.-Head-Change    Column Row Layer    Max.-Flux-Residual            L2-New               L2-Old           Solver-Max-Delh
          0                 1           4             9    9     1      -0.9857870750E-03       9    9    1      -0.1560452082E+01      0.2145047826E+01      0.4103184299E-01     -0.9857870750E-03
          0                 2           2             9    9     1       0.8388749068E-04       9    9    1       0.1560673841E+00      0.2306668797E+00      0.2145047826E+01      0.8388749068E-04

    ------------------------------------------------
       NWT REQUIRED            2 OUTER ITERATIONS 
       AND A TOTAL OF          6 INNER ITERATIONS.
    ------------------------------------------------
                                                   Max.-Head-Change                        Max.-Flux-Residual
  Residual-Control   Outer-Iter.   Inner-Iter.     Column Row Layer    Max.-Head-Change    Column Row Layer    Max.-Flux-Residual            L2-New               L2-Old           Solver-Max-Delh
          0                 1           3             9    9     1      -0.4268575656E-03       9    9    1      -0.6790500815E+00      0.1032582073E+01      0.2306668797E+00     -0.4268575656E-03
          0                 2           2             9    9     1       0.3635952591E-04       9    9    1       0.6793876446E-01      0.1157264836E+00      0.1032582073E+01      0.3635952591E-04

    ------------------------------------------------
       NWT REQUIRED            2 OUTER ITERATIONS 
       AND A TOTAL OF          5 INNER ITERATIONS.
    ------------------------------------------------

 OUTPUT CONTROL FOR STRESS PERIOD     16   TIME STEP     1
    SAVE BUDGET
 UBDSV1 SAVING "         STORAGE" ON UNIT  70 AT TIME STEP    1, STRESS PERIOD  16
 UBDSV2 SAVING "   CONSTANT HEAD" ON UNIT  70 AT TIME STEP    1, STRESS PERIOD  16
 UBDSV1 SAVING "FLOW RIGHT FACE " ON UNIT  70 AT TIME STEP    1, STRESS PERIOD  16
 UBDSV1 SAVING "FLOW FRONT FACE " ON UNIT  70 AT TIME STEP    1, STRESS PERIOD  16
 UBDSV1 SAVING "FLOW LOWER FACE " ON UNIT  70 AT TIME STEP    1, STRESS PERIOD  16
 UBDSV4 SAVING " HEAD DEP BOUNDS" ON UNIT  70 AT TIME STEP    1, STRESS PERIOD  16
 UBDSV4 SAVING "  STREAM LEAKAGE" ON UNIT  70 AT TIME STEP    1, STRESS PERIOD  16



 UBDSV4 SAVING "             MNW" ON UNIT  70 AT TIME STEP    1, STRESS PERIOD  16
 
 
 
 
 
 
 
 
 UBDSV3 SAVING "FARM  NET  RECH." ON UNIT  70 AT TIME STEP    1, STRESS PERIOD  16
 UBDSV4 SAVING " GHOST-NODE FLUX" ON UNIT  70 AT TIME STEP    1, STRESS PERIOD  16
 UBDSV4 SAVING " GHOST-NODE FLUX" ON UNIT  70 AT TIME STEP    1, STRESS PERIOD  16
 UBDSV4 SAVING " GHOST-NODE FLUX" ON UNIT  70 AT TIME STEP    1, STRESS PERIOD  16
 
 SOLVING FOR HEAD 
                                                   Max.-Head-Change                        Max.-Flux-Residual
  Residual-Control   Outer-Iter.   Inner-Iter.     Column Row Layer    Max.-Head-Change    Column Row Layer    Max.-Flux-Residual            L2-New               L2-Old           Solver-Max-Delh
          0                 1           8            19    3     4      -0.4747650726E+01       6    5    1      -0.6675738343E+03      0.1834696220E+04      0.1157264836E+00     -0.4747650726E+01
          0                 2           7            19    3     2      -0.7003080192E+00      19    3    2      -0.2975162051E+03      0.4579163689E+03      0.1834696220E+04     -0.7003080192E+00
          0                 3           6            17    6     3      -0.7526607234E-01       2    8    1       0.1446803807E+02      0.3223179967E+02      0.4579163689E+03     -0.7526607234E-01
          0                 4           5            17    6     4      -0.1845110141E-01       2    8    1       0.4819822207E+01      0.1225542628E+02      0.3223179967E+02     -0.1845110141E-01
          0                 5           4            17    6     4      -0.4211456796E-02       2    8    1       0.1505195530E+01      0.2801597351E+01      0.1225542628E+02     -0.4211456796E-02
          0                 6           4            17    6     4      -0.8967363962E-03       2    8    1       0.4644682936E+00      0.7904628493E+00      0.2801597351E+01     -0.8967363962E-03
          0                 7           3            17    6     4      -0.1860920473E-03       2    8    1       0.1427740337E+00      0.2274706226E+00      0.7904628493E+00     -0.1860920473E-03
          0                 8           2            17    6     4      -0.3821876731E-04       2    8    1       0.4384310613E-01      0.6987221966E-01      0.2274706226E+00     -0.3821876731E-04

    ------------------------------------------------
       NWT REQUIRED            8 OUTER ITERATIONS 
       AND A TOTAL OF         39 INNER ITERATIONS.
    ------------------------------------------------
                                                   Max.-Head-Change                        Max.-Flux-Residual
  Residual-Control   Outer-Iter.   Inner-Iter.     Column Row Layer    Max.-Head-Change    Column Row Layer    Max.-Flux-Residual            L2-New               L2-Old           Solver-Max-Delh
          0                 1           7             9    9     1      -0.2056069752E+00      13   16    1      -0.3085248476E+03      0.5311009664E+03      0.6987221966E-01     -0.2056069752E+00
          0                 2           6             9    9     1       0.1625693592E-01      13   16    1       0.3052723179E+02      0.6124713303E+02      0.5311009664E+03      0.1625693592E-01
          0                 3           4             9    9     1       0.9057353840E-03       9    5    1       0.1399955635E+01      0.3234884420E+01      0.6124713303E+02      0.9057353840E-03
          0                 4           3            19    3     3      -0.8264449849E-04      12   16    1      -0.8832503075E-01      0.2293778155E+00      0.3234884420E+01     -0.8264449849E-04

    ------------------------------------------------
       NWT REQUIRED            4 OUTER ITERATIONS 
       AND A TOTAL OF         20 INNER ITERATIONS.
    ------------------------------------------------
                                                   Max.-Head-Change                        Max.-Flux-Residual
  Residual-Control   Outer-Iter.   Inner-Iter.     Column Row Layer    Max.-Head-Change    Column Row Layer    Max.-Flux-Residual            L2-New               L2-Old           Solver-Max-Delh
          0                 1           6            12   10     1      -0.1344288910E+00      12   10    1      -0.3369697199E+03      0.3496773885E+03      0.2293778155E+00     -0.1344288910E+00
          0                 2           5            19    3     3      -0.1173276988E-01      12   12    1      -0.3303478963E+02      0.5416759114E+02      0.3496773885E+03     -0.1173276988E-01
          0                 3           4            19    3     3      -0.1381190445E-02      12   12    1       0.2759268321E+01      0.4170022869E+01      0.5416759114E+02     -0.1381190445E-02
          0                 4           3            19    3     3      -0.1630535880E-03      12   12    1       0.1884780675E+00      0.2788225376E+00      0.4170022869E+01     -0.1630535880E-03
          0                 5           2            19    3     3      -0.1904889988E-04      12   12    1       0.1371268707E-01      0.3464540243E-01      0.2788225376E+00     -0.1904889988E-04

    ------------------------------------------------
       NWT REQUIRED            5 OUTER ITERATIONS 
       AND A TOTAL OF         20 INNER ITERATIONS.
    ------------------------------------------------
                                                   Max.-Head-Change                        Max.-Flux-Residual
  Residual-Control   Outer-Iter.   Inner-Iter.     Column Row Layer    Max.-Head-Change    Column Row Layer    Max.-Flux-Residual            L2-New               L2-Old           Solver-Max-Delh
          0                 1           6             9    9     1       0.3948930720E-01       9    9    1       0.4810446368E+02      0.6543769072E+02      0.3464540243E-01      0.3948930720E-01
          0                 2           5             9    9     1      -0.3241399223E-02       9    9    1      -0.4817631533E+01      0.6631938172E+01      0.6543769072E+02     -0.3241399223E-02
          0                 3           3             9    9     1      -0.1720586454E-03       9    9    1      -0.2411742068E+00      0.3395169815E+00      0.6631938172E+01     -0.1720586454E-03
          0                 4           2            19    3     3       0.1626498287E-04       2    8    1      -0.1707099273E-01      0.3845676994E-01      0.3395169815E+00      0.1626498287E-04

    ------------------------------------------------
       NWT REQUIRED            4 OUTER ITERATIONS 
       AND A TOTAL OF         16 INNER ITERATIONS.
    ------------------------------------------------
                                                   Max.-Head-Change                        Max.-Flux-Residual
  Residual-Control   Outer-Iter.   Inner-Iter.     Column Row Layer    Max.-Head-Change    Column Row Layer    Max.-Flux-Residual            L2-New               L2-Old           Solver-Max-Delh
          0                 1           6             9    9     1       0.1747546210E-01       9    9    1       0.2024703593E+02      0.3737673465E+02      0.3845676994E-01      0.1747546210E-01
          0                 2           4             9    9     1      -0.1428418675E-02       9    9    1      -0.2025585210E+01      0.3804239223E+01      0.3737673465E+02     -0.1428418675E-02
          0                 3           3            19    3     3       0.1219383490E-03       9    9    1      -0.1013337946E+00      0.2035305900E+00      0.3804239223E+01      0.1219383490E-03
          0                 4           2            19    3     3       0.1402479280E-04      14   11    1       0.1030980266E-01      0.2931554043E-01      0.2035305900E+00      0.1402479280E-04

    ------------------------------------------------
       NWT REQUIRED            4 OUTER ITERATIONS 
       AND A TOTAL OF         15 INNER ITERATIONS.
    ------------------------------------------------
                                                   Max.-Head-Change                        Max.-Flux-Residual
  Residual-Control   Outer-Iter.   Inner-Iter.     Column Row Layer    Max.-Head-Change    Column Row Layer    Max.-Flux-Residual            L2-New               L2-Old           Solver-Max-Delh
          0                 1           5             9    5     1       0.6684789224E-02      12   10    1       0.1187111096E+02      0.2053014419E+02      0.2931554043E-01      0.6684789224E-02
          0                 2           4            19    3     3       0.7974502473E-03      12   10    1      -0.1156349297E+01      0.2112355322E+01      0.2053014419E+02      0.7974502473E-03
          0                 3           3            19    3     3       0.1281363442E-03      12   10    1      -0.6046803948E-01      0.1361691627E+00      0.2112355322E+01      0.1281363442E-03
          0                 4           2            19    3     3       0.3271093621E-04      19    3    2       0.1117400451E-01      0.2894751523E-01      0.1361691627E+00      0.3271093621E-04

    ------------------------------------------------
       NWT REQUIRED            4 OUTER ITERATIONS 
       AND A TOTAL OF         14 INNER ITERATIONS.
    ------------------------------------------------
                                                   Max.-Head-Change                        Max.-Flux-Residual
  Residual-Control   Outer-Iter.   Inner-Iter.     Column Row Layer    Max.-Head-Change    Column Row Layer    Max.-Flux-Residual            L2-New               L2-Old           Solver-Max-Delh
          0                 1           5             9    5     1       0.3584469894E-02      12   10    1       0.7497090197E+01      0.1149189520E+02      0.2894751523E-01      0.3584469894E-02
          0                 2           4            19    3     3       0.5697923670E-03      12   10    1      -0.7303737926E+00      0.1188915343E+01      0.1149189520E+02      0.5697923670E-03
          0                 3           2            12   10     1      -0.1531899218E-04      12   10    1      -0.3815400973E-01      0.8121199419E-01      0.1188915343E+01     -0.1531899218E-04

    ------------------------------------------------
       NWT REQUIRED            3 OUTER ITERATIONS 
       AND A TOTAL OF         11 INNER ITERATIONS.
    ------------------------------------------------
                                                   Max.-Head-Change                        Max.-Flux-Residual
  Residual-Control   Outer-Iter.   Inner-Iter.     Column Row Layer    Max.-Head-Change    Column Row Layer    Max.-Flux-Residual            L2-New               L2-Old           Solver-Max-Delh
          0                 1           5            12   10     1       0.1806328969E-02      12   10    1       0.3943028713E+01      0.6098924900E+01      0.8121199419E-01      0.1806328969E-02
          0                 2           3            19    3     3       0.2791526051E-03      12   10    1      -0.3841101750E+00      0.6343383357E+00      0.6098924900E+01      0.2791526051E-03
          0                 3           2            19    3     3       0.3204285526E-04      18   14    1       0.2199240658E-01      0.5512834412E-01      0.6343383357E+00      0.3204285526E-04

    ------------------------------------------------
       NWT REQUIRED            3 OUTER ITERATIONS 
       AND A TOTAL OF         10 INNER ITERATIONS.
    ------------------------------------------------
                                                   Max.-Head-Change                        Max.-Flux-Residual
  Residual-Control   Outer-Iter.   Inner-Iter.     Column Row Layer    Max.-Head-Change    Column Row Layer    Max.-Flux-Residual            L2-New               L2-Old           Solver-Max-Delh
          0                 1           4             9    9     1      -0.8705861167E-03      12   10    1       0.1809237494E+01      0.2862143273E+01      0.5512834412E-01     -0.8705861167E-03
          0                 2           3            19    3     3       0.9619818417E-04      12   10    1      -0.1764767846E+00      0.3025472195E+00      0.2862143273E+01      0.9619818417E-04

    ------------------------------------------------
       NWT REQUIRED            2 OUTER ITERATIONS 
       AND A TOTAL OF          7 INNER ITERATIONS.
    ------------------------------------------------
                                                   Max.-Head-Change                        Max.-Flux-Residual
  Residual-Control   Outer-Iter.   Inner-Iter.     Column Row Layer    Max.-Head-Change    Column Row Layer    Max.-Flux-Residual            L2-New               L2-Old           Solver-Max-Delh
          0                 1           4             9    9     1      -0.2894328514E-03      12   10    1       0.7033165843E+00      0.1150224048E+01      0.3025472195E+00     -0.2894328514E-03
          0                 2           2             9    9     1       0.2500479726E-04      12   10    1      -0.6905688520E-01      0.1301057463E+00      0.1150224048E+01      0.2500479726E-04

    ------------------------------------------------
       NWT REQUIRED            2 OUTER ITERATIONS 
       AND A TOTAL OF          6 INNER ITERATIONS.
    ------------------------------------------------
                                                   Max.-Head-Change                        Max.-Flux-Residual
  Residual-Control   Outer-Iter.   Inner-Iter.     Column Row Layer    Max.-Head-Change    Column Row Layer    Max.-Flux-Residual            L2-New               L2-Old           Solver-Max-Delh
          0                 1           3            11   11     1       0.1274111134E-03      12   10    1       0.2461126090E+00      0.4924819114E+00      0.1301057463E+00      0.1274111134E-03
          0                 2           2            11   11     1      -0.1037361392E-04      18   14    1       0.2511228033E-01      0.6766197073E-01      0.4924819114E+00     -0.1037361392E-04

    ------------------------------------------------
       NWT REQUIRED            2 OUTER ITERATIONS 
       AND A TOTAL OF          5 INNER ITERATIONS.
    ------------------------------------------------

 OUTPUT CONTROL FOR STRESS PERIOD     16   TIME STEP     2
    SAVE BUDGET
 UBDSV1 SAVING "         STORAGE" ON UNIT  70 AT TIME STEP    2, STRESS PERIOD  16
 UBDSV2 SAVING "   CONSTANT HEAD" ON UNIT  70 AT TIME STEP    2, STRESS PERIOD  16
 UBDSV1 SAVING "FLOW RIGHT FACE " ON UNIT  70 AT TIME STEP    2, STRESS PERIOD  16
 UBDSV1 SAVING "FLOW FRONT FACE " ON UNIT  70 AT TIME STEP    2, STRESS PERIOD  16
 UBDSV1 SAVING "FLOW LOWER FACE " ON UNIT  70 AT TIME STEP    2, STRESS PERIOD  16
 UBDSV4 SAVING " HEAD DEP BOUNDS" ON UNIT  70 AT TIME STEP    2, STRESS PERIOD  16
 UBDSV4 SAVING "  STREAM LEAKAGE" ON UNIT  70 AT TIME STEP    2, STRESS PERIOD  16



 UBDSV4 SAVING "             MNW" ON UNIT  70 AT TIME STEP    2, STRESS PERIOD  16
 
 
 
 
 
 
 
 
 UBDSV3 SAVING "FARM  NET  RECH." ON UNIT  70 AT TIME STEP    2, STRESS PERIOD  16
 UBDSV4 SAVING " GHOST-NODE FLUX" ON UNIT  70 AT TIME STEP    2, STRESS PERIOD  16
 UBDSV4 SAVING " GHOST-NODE FLUX" ON UNIT  70 AT TIME STEP    2, STRESS PERIOD  16
 UBDSV4 SAVING " GHOST-NODE FLUX" ON UNIT  70 AT TIME STEP    2, STRESS PERIOD  16
1
  VOLUMETRIC BUDGET FOR ENTIRE MODEL AT END OF TIME STEP    2 IN STRESS PERIOD     16
  ------------------------------------------------------------------------------

     CUMULATIVE VOLUMES      L**3       RATES FOR THIS TIME STEP      L**3/T
     ------------------                 ------------------------

           IN:                                      IN:
           ---                                      ---
             STORAGE =    13324195.0000               STORAGE =       26168.7168
       CONSTANT HEAD =           0.0000         CONSTANT HEAD =           0.0000
     HEAD DEP BOUNDS =     3499363.2500       HEAD DEP BOUNDS =        6818.8804
      STREAM LEAKAGE =     8341652.5000        STREAM LEAKAGE =       13107.7705
                 MNW =       36021.4414                   MNW =           0.0000
          FARM WELLS =           0.0000            FARM WELLS =           0.0000
    FARM  NET  RECH. =     9933864.0000      FARM  NET  RECH. =        6247.9937
     GHOST-NODE FLUX =     2839818.7500       GHOST-NODE FLUX =        7283.7310

            TOTAL IN =    37974916.0000              TOTAL IN =       59627.0898

          OUT:                                     OUT:
          ----                                     ----
             STORAGE =     8034083.5000               STORAGE =          57.6505
       CONSTANT HEAD =           0.0000         CONSTANT HEAD =           0.0000
     HEAD DEP BOUNDS =     8339858.5000       HEAD DEP BOUNDS =       17216.8887
      STREAM LEAKAGE =      671468.3750        STREAM LEAKAGE =        1280.6146
                 MNW =     3508752.2500                   MNW =       16225.8145
          FARM WELLS =     4165342.0000            FARM WELLS =       10325.0918
    FARM  NET  RECH. =     1712658.8750      FARM  NET  RECH. =        8137.9990
     GHOST-NODE FLUX =    11542753.0000       GHOST-NODE FLUX =        6383.0659

           TOTAL OUT =    37974916.0000             TOTAL OUT =       59627.1289

            IN - OUT =           0.0000              IN - OUT =      -3.9062E-02

 PERCENT DISCREPANCY =           0.00     PERCENT DISCREPANCY =          -0.00






          TIME SUMMARY AT END OF TIME STEP     2 IN STRESS PERIOD     16
                    SECONDS     MINUTES      HOURS       DAYS        YEARS
                    -----------------------------------------------------------
   TIME STEP LENGTH 1.31414E+06  21902.      365.04      15.210     4.16427E-02
 STRESS PERIOD TIME 2.62829E+06  43805.      730.08      30.420     8.32854E-02
         TOTAL TIME 4.20526E+07 7.00877E+05  11681.      486.72      1.3326    
1
1
                            STRESS PERIOD NO.     17, LENGTH =   30.42000    
                            -----------------------------------------------

                              NUMBER OF TIME STEPS =     2

                               MULTIPLIER FOR DELT =     1.000

                            INITIAL TIME STEP SIZE =   15.21000    

 REUSING NON-PARAMETER GHB CELLS FROM LAST STRESS PERIOD

     92 GHB CELLS

 REUSING STREAM SEGMENT DATA FROM LAST STRESS PERIOD

 REUSING MNW7  FROM LAST STRESS PERIOD

 Parameter:  WELLS1
 WELL NO. LAYER    ROW    COL  F-WELL ID    FARM ID         QMAX         QMAXRESET       
 ----------------------------------------------------------------------------------------
       1      1      5      6          1          1      5.0000E+03              0
       2      1      8      7          2          1      5.0000E+03              0
       3      1      8      9          3          1      5.0000E+03              0
       4      1      5      9          4          2      3.0000E+03              0
       5      1      6     10          5          2      2.0000E+03              0
       6      1      7     11          6          2      1.0000E+03              0
       7      1     18      3          7          3      2.0000E+03              0
       8      1     21      3          8          3      4.0000E+03              0
       9      1     18     19          9          4      3.0000E+03              0
      10      1     21     19         10          4      5.0000E+03              0
      11      0      6      2        -11          5      5.0000E+03              1
      12      0      8      2        -12          5      5.0000E+03              1
      13      0     10      2        -13          5      5.0000E+03              1
      14      0      3     19        -14          6      1.0000E+04              1
      15      0      6     17        -15          6      6.0000E+03              1

 NUMBER OF ACTIVE FARM WELLS:       15

 THE SINGLE LAYER FMP- OR MNW- WELL IN ROW      8 AND COLUMN      7 IS LOCATED IN AN INACTIVE CELL (IBOUND=0) AND HAS BEEN EXCLUDED FROM THE TOTAL MAXIMUM CAPACITY PER FARM

 THE SINGLE LAYER FMP- OR MNW- WELL IN ROW      8 AND COLUMN      9 IS LOCATED IN AN INACTIVE CELL (IBOUND=0) AND HAS BEEN EXCLUDED FROM THE TOTAL MAXIMUM CAPACITY PER FARM

 THE SINGLE LAYER FMP- OR MNW- WELL IN ROW      6 AND COLUMN     10 IS LOCATED IN AN INACTIVE CELL (IBOUND=0) AND HAS BEEN EXCLUDED FROM THE TOTAL MAXIMUM CAPACITY PER FARM

 THE SINGLE LAYER FMP- OR MNW- WELL IN ROW      7 AND COLUMN     11 IS LOCATED IN AN INACTIVE CELL (IBOUND=0) AND HAS BEEN EXCLUDED FROM THE TOTAL MAXIMUM CAPACITY PER FARM

 FARM-ID  NUMBER OF WELLS PER FARM  TOTAL MAX.CAPACITY PER FARM
       1                         1                    5000.0000
       2                         1                    3000.0000
       3                         2                    6000.0000
       4                         2                    8000.0000
       5                         3                   15000.0000
       6                         2                   16000.0000
       7                         0                       0.0000
       8                         0                       0.0000

 READING LIST ON UNIT   20 WITH FILE NAME: C:\MF_OWHM_Release_Package\MF_OWHM_v1_0\examples\test-run-owhm-lgr\fmp-lgr-nwt\DATA_FMP\OFE.in
 LIST SCALING FACTOR=  1.0000    
 (THE SCALE FACTOR WAS APPLIED TO FIELDS   2 -   7)

 Reading list on unit   30

 Reading list on unit   40

  REF. EVAPOTRANSPIRATION =  5.920000E-03

 READING LIST ON UNIT   50 WITH FILE NAME: C:\MF_OWHM_Release_Package\MF_OWHM_v1_0\examples\test-run-owhm-lgr\fmp-lgr-nwt\DATA_FMP\FTE.in

Transpiratory and Evaporative Fractions of Crop Consumptive Use
    % Transpiration % Evap. for Precip. % Evap. for Irrig.
    1          0.846          0.154          0.154
    2          0.940          0.060          0.060
    3          0.000          1.000          1.000
    4          0.125          0.875          0.875
    5          0.924          0.076          0.000
    6          0.800          0.200          0.000

 READING LIST ON UNIT   60 WITH FILE NAME: C:\MF_OWHM_Release_Package\MF_OWHM_v1_0\examples\test-run-owhm-lgr\fmp-lgr-nwt\DATA_FMP\INEFFSW.in

FRACTIONS OF IN-EFFICIENT LOSSES TO SW-RUNOFF FROM 
     PRECIPITATION:  IRRIGATION:
    1          0.500          0.600
    2          0.400          0.300
    3          0.600          0.500
    4          0.700          0.600
    5          0.500          0.000
    6          0.300          0.000

       PRECIPITATION FLUX =  2.900000E-04

 OPENING FILE WITH FILENAME: ./DATA_FMP/NRDV.in
 AND UNIT NUMBER: -163
 READING SCALE FACTOR LIST ON UNIT   80 ASSOCIATED WITH FILE: C:\MF_OWHM_Release_Package\MF_OWHM_v1_0\examples\test-run-owhm-lgr\fmp-lgr-nwt\DATA_FMP\NRDV.in
 FIELD     SCALE FACTOR
     1       1.0000    
     2       5.0000    
     3       1.0000    
     4       1.0000    

UNRANKED LIST OF NON-ROUTED DELIVERIES TO FARMS [L3]:
TYPE:             1

FARM-ID  VOLUME:
      1   7.500E+04
      2   7.500E+04
      3   1.000E+05
      4   5.000E+04
      5   5.000E+04
      6   1.000E+05
      7   0.000E+00
      8   0.000E+00

FARM-ID  PRIORITY RANK OF NRD-TYPE:
      1           1
      2           1
      3           1
      4           1
      5           1
      6           1
      7           1
      8           1

FARM-ID  USE-FLAG:
         0 = SUFFICIENT USE
         1 = ABSOLUTE USE (RECHARGE SURPLUS BACK INTO CANAL)
         2 = ABSOLUTE USE (INJECT SURPLUS INTO FARM-WELLS)
      1           0
      2           0
      3           0
      4           0
      5           0
      6           0
      7           0
      8           0

LIST OF NON-ROUTED DELIVERIES IN RANKED SEQUENCE [L3/T]:

FARM-ID  RATE:
      1   2.465E+03
      2   2.465E+03
      3   3.287E+03
      4   1.644E+03
      5   1.644E+03
      6   3.287E+03
      7   0.000E+00
      8   0.000E+00

FARM-ID  USE-FLAG:
         0 = SUFFICIENT USE
         1 = ABSOLUTE USE (RECHARGE SURPLUS BACK INTO CANAL)
         2 = ABSOLUTE USE (INJECT SURPLUS INTO FARM-WELLS)
      1           0
      2           0
      3           0
      4           0
      5           0
      6           0
      7           0
      8           0

SURFACE-WATER FARM ALLOTMENT HEIGHT [L]:   0.013
 
 SOLVING FOR HEAD 
                                                   Max.-Head-Change                        Max.-Flux-Residual
  Residual-Control   Outer-Iter.   Inner-Iter.     Column Row Layer    Max.-Head-Change    Column Row Layer    Max.-Flux-Residual            L2-New               L2-Old           Solver-Max-Delh
          0                 1           9            19    3     4      -0.2535658489E+01       6    5    1       0.4813865320E+04      0.5769280923E+04      0.6766197073E-01     -0.2535658489E+01
          1                 1           0            19    3     4      -0.1774960912E+01       6    5    1      -0.5511318839E+04      0.1068661422E+05      0.5769280923E+04     -0.2535658489E+01
          2                 1           0            19    3     4      -0.1242472617E+01       9    5    1      -0.4369504655E+04      0.9150468250E+04      0.1068661422E+05     -0.2535658489E+01
          3                 1           0            19    3     4      -0.8697308173E+00       9    5    1      -0.4194075744E+04      0.8192510136E+04      0.9150468250E+04     -0.2535658489E+01
          4                 1           0            19    3     4      -0.6088115617E+00       9    5    1      -0.4071418682E+04      0.7607977019E+04      0.8192510136E+04     -0.2535658489E+01
          5                 1           0            19    3     4      -0.4261680860E+00       9    5    1      -0.3985629349E+04      0.7255194060E+04      0.7607977019E+04     -0.2535658489E+01
          6                 1           0            19    3     4      -0.2983176551E+00       9    5    1      -0.3925611214E+04      0.7040575014E+04      0.7255194060E+04     -0.2535658489E+01
          7                 1           0            19    3     4      -0.2088223550E+00       9    5    1      -0.3883615164E+04      0.6907765023E+04      0.7040575014E+04     -0.2535658489E+01
          8                 1           0            19    3     4      -0.1461756460E+00       9    5    1      -0.3854226655E+04      0.6823816697E+04      0.6907765023E+04     -0.2535658489E+01
          9                 1           0            19    3     4      -0.1023229505E+00       9    5    1      -0.3833658365E+04      0.6769635767E+04      0.6823816697E+04     -0.2535658489E+01
                                                   Max.-Head-Change                        Max.-Flux-Residual
  Residual-Control   Outer-Iter.   Inner-Iter.     Column Row Layer    Max.-Head-Change    Column Row Layer    Max.-Flux-Residual            L2-New               L2-Old           Solver-Max-Delh
         10                 1           0            19    3     4      -0.7162606411E-01       9    5    1      -0.3819262641E+04      0.6733999237E+04      0.6769635767E+04     -0.2535658489E+01
         11                 1           0            19    3     4      -0.5013824402E-01       9    5    1      -0.3809186440E+04      0.6710208693E+04      0.6733999237E+04     -0.2535658489E+01
         12                 1           0            19    3     4      -0.3509677022E-01       9    5    1      -0.3802133800E+04      0.6694125958E+04      0.6710208693E+04     -0.2535658489E+01
         13                 1           0            19    3     4      -0.2456773873E-01       9    5    1      -0.3797197223E+04      0.6683148244E+04      0.6694125958E+04     -0.2535658489E+01
         14                 1           0            19    3     4      -0.1719741682E-01       9    5    1      -0.3793741585E+04      0.6675602665E+04      0.6683148244E+04     -0.2535658489E+01
         15                 1           0            19    3     4      -0.1203819157E-01       9    5    1      -0.3791322542E+04      0.6670388875E+04      0.6675602665E+04     -0.2535658489E+01
         16                 1           0            19    3     4      -0.8426733955E-02       9    5    1      -0.3789629522E+04      0.6666774051E+04      0.6670388875E+04     -0.2535658489E+01
         17                 1           0            19    3     4      -0.5898713668E-02       9    5    1      -0.3788444552E+04      0.6664257560E+04      0.6666774051E+04     -0.2535658489E+01
         18                 1           0            19    3     4      -0.4129099497E-02       9    5    1      -0.3787614856E+04      0.6662505808E+04      0.6664257560E+04     -0.2535658489E+01
         19                 1           0            19    3     4      -0.2890369599E-02       9    5    1      -0.3787033997E+04      0.6661286504E+04      0.6662505808E+04     -0.2535658489E+01
                                                   Max.-Head-Change                        Max.-Flux-Residual
  Residual-Control   Outer-Iter.   Inner-Iter.     Column Row Layer    Max.-Head-Change    Column Row Layer    Max.-Flux-Residual            L2-New               L2-Old           Solver-Max-Delh
         20                 1           0            19    3     4      -0.2023258685E-02       9    5    1      -0.3786627217E+04      0.6660429759E+04      0.6661286504E+04     -0.2535658489E+01
         21                 1           0            19    3     4      -0.1416281055E-02       9    5    1      -0.3786342999E+04      0.6659834994E+04      0.6660429759E+04     -0.2535658489E+01
         22                 1           0            19    3     4      -0.9913967218E-03       9    5    1      -0.3786143844E+04      0.6659415383E+04      0.6659834994E+04     -0.2535658489E+01
         23                 1           0            19    3     4      -0.6939776934E-03       9    5    1      -0.3786004397E+04      0.6659123324E+04      0.6659415383E+04     -0.2535658489E+01
         24                 1           0            19    3     4      -0.4857843771E-03       9    5    1      -0.3785907145E+04      0.6658920432E+04      0.6659123324E+04     -0.2535658489E+01
         25                 1           0            19    3     4      -0.3400490582E-03       9    5    1      -0.3785838627E+04      0.6658777396E+04      0.6658920432E+04     -0.2535658489E+01
         26                 1           0            19    3     4      -0.2380343367E-03       9    5    1      -0.3785790305E+04      0.6658676664E+04      0.6658777396E+04     -0.2535658489E+01
         27                 1           0            19    3     4      -0.1666240328E-03       9    5    1      -0.3785757009E+04      0.6658606823E+04      0.6658676664E+04     -0.2535658489E+01
         28                 1           0            19    3     4      -0.1166368210E-03       9    5    1      -0.3785733515E+04      0.6658558386E+04      0.6658606823E+04     -0.2535658489E+01
         29                 1           0            19    3     4      -0.8164577331E-04       9    5    1      -0.3785717031E+04      0.6658523561E+04      0.6658558386E+04     -0.2535658489E+01
                                                   Max.-Head-Change                        Max.-Flux-Residual
  Residual-Control   Outer-Iter.   Inner-Iter.     Column Row Layer    Max.-Head-Change    Column Row Layer    Max.-Flux-Residual            L2-New               L2-Old           Solver-Max-Delh
         30                 1           0            19    3     4      -0.5715204035E-04       9    5    1      -0.3785705729E+04      0.6658500505E+04      0.6658523561E+04     -0.2535658489E+01
         31                 1           0            19    3     4      -0.4000642756E-04       9    5    1      -0.3785697885E+04      0.6658484296E+04      0.6658500505E+04     -0.2535658489E+01
         32                 1           0            19    3     4      -0.2800449882E-04       9    5    1      -0.3785692074E+04      0.6658472801E+04      0.6658484296E+04     -0.2535658489E+01
         33                 1           0            19    3     4      -0.1960314884E-04       9    5    1      -0.3785688220E+04      0.6658464705E+04      0.6658472801E+04     -0.2535658489E+01
         34                 1           0            19    3     4      -0.1372220395E-04       9    5    1      -0.3785685621E+04      0.6658457307E+04      0.6658464705E+04     -0.2535658489E+01
         35                 1           0            19    3     4      -0.9605542603E-05       9    5    1      -0.3785683484E+04      0.6658453228E+04      0.6658457307E+04     -0.2535658489E+01
         36                 1           0            19    3     4      -0.6723879708E-05       9    5    1      -0.3785682086E+04      0.6658450122E+04      0.6658453228E+04     -0.2535658489E+01
         37                 1           0            19    3     4      -0.4706715715E-05       9    5    1      -0.3785681006E+04      0.6658448371E+04      0.6658450122E+04     -0.2535658489E+01
         38                 1           0            19    3     4      -0.3294700944E-05       9    5    1      -0.3785680440E+04      0.6658447019E+04      0.6658448371E+04     -0.2535658489E+01
         39                 1           0            19    3     4      -0.2306290622E-05       9    5    1      -0.3785680044E+04      0.6658446209E+04      0.6658447019E+04     -0.2535658489E+01
                                                   Max.-Head-Change                        Max.-Flux-Residual
  Residual-Control   Outer-Iter.   Inner-Iter.     Column Row Layer    Max.-Head-Change    Column Row Layer    Max.-Flux-Residual            L2-New               L2-Old           Solver-Max-Delh
         40                 1           0            19    3     4      -0.1614403408E-05       9    5    1      -0.3785679279E+04      0.6658445231E+04      0.6658446209E+04     -0.2535658489E+01
         41                 1           0            19    3     4      -0.1130082366E-05       9    5    1      -0.3785679329E+04      0.6658444965E+04      0.6658445231E+04     -0.2535658489E+01
         42                 1           0            19    3     4      -0.7910576429E-06       9    5    1      -0.3785679193E+04      0.6658444774E+04      0.6658444965E+04     -0.2535658489E+01
          0                 2           9            19    3     4      -0.4299408933E+01       9    5    1      -0.3785679098E+04      0.6658444782E+04      0.6658444774E+04     -0.4299408933E+01
          0                 3           7             2    8     3      -0.2552713139E+00       2    8    1      -0.4876475389E+03      0.1045786064E+04      0.6658444782E+04     -0.2552713139E+00
          0                 4           6             2    8     3      -0.4947986816E-01       2    8    1      -0.8990530647E+02      0.1587443675E+03      0.1045786064E+04     -0.4947986816E-01
          0                 5           5             2    8     3      -0.9938602535E-02       2    8    1      -0.1860163033E+02      0.3317114987E+02      0.1587443675E+03     -0.9938602535E-02
          0                 6           5             2    8     3      -0.1930130319E-02       2    8    1      -0.3575669576E+01      0.6742936972E+01      0.3317114987E+02     -0.1930130319E-02
          0                 7           4             2    8     3      -0.3791285664E-03       2    8    1      -0.7074172037E+00      0.1402055280E+01      0.6742936972E+01     -0.3791285664E-03
          0                 8           3             2    8     3      -0.7371818386E-04      15   16    1       0.1621963646E+00      0.2996633331E+00      0.1402055280E+01     -0.7371818386E-04

    ------------------------------------------------
       NWT REQUIRED            8 OUTER ITERATIONS 
       AND A TOTAL OF         48 INNER ITERATIONS.
    ------------------------------------------------
                                                   Max.-Head-Change                        Max.-Flux-Residual
  Residual-Control   Outer-Iter.   Inner-Iter.     Column Row Layer    Max.-Head-Change    Column Row Layer    Max.-Flux-Residual            L2-New               L2-Old           Solver-Max-Delh
          0                 1           8             9    5     1      -0.1079662222E+01       9    5    1      -0.1843006869E+04      0.2067691027E+04      0.2996633331E+00     -0.1079662222E+01
          0                 2           6             9    5     1       0.9070716168E-01       9    5    1       0.1759770969E+03      0.2102391482E+03      0.2067691027E+04      0.9070716168E-01
          0                 3           5             9    5     1       0.4512744940E-02       9    5    1       0.8739514663E+01      0.1007305975E+02      0.2102391482E+03      0.4512744940E-02
          0                 4           3             9    5     1       0.2261100302E-03       9    5    1       0.4368573437E+00      0.7917335021E+00      0.1007305975E+02      0.2261100302E-03
          0                 5           2            19    3     3       0.4051626886E-04       2    8    1       0.6509530975E-01      0.1176097646E+00      0.7917335021E+00      0.4051626886E-04

    ------------------------------------------------
       NWT REQUIRED            5 OUTER ITERATIONS 
       AND A TOTAL OF         24 INNER ITERATIONS.
    ------------------------------------------------
                                                   Max.-Head-Change                        Max.-Flux-Residual
  Residual-Control   Outer-Iter.   Inner-Iter.     Column Row Layer    Max.-Head-Change    Column Row Layer    Max.-Flux-Residual            L2-New               L2-Old           Solver-Max-Delh
          0                 1           7             9    5     1       0.3005848393E+00       9    5    1       0.4078777884E+03      0.5945423659E+03      0.1176097646E+00      0.3005848393E+00
          0                 2           6             9    5     1      -0.2619537542E-01      12   12    1      -0.4919947465E+02      0.8996196920E+02      0.5945423659E+03     -0.2619537542E-01
          0                 3           4             9    5     1      -0.1311968088E-02      12   11    1       0.4554476573E+01      0.6934716079E+01      0.8996196920E+02     -0.1311968088E-02
          0                 4           3            12   12     1       0.7173256857E-04      12   12    1       0.2708639040E+00      0.4376500807E+00      0.6934716079E+01      0.7173256857E-04

    ------------------------------------------------
       NWT REQUIRED            4 OUTER ITERATIONS 
       AND A TOTAL OF         20 INNER ITERATIONS.
    ------------------------------------------------
                                                   Max.-Head-Change                        Max.-Flux-Residual
  Residual-Control   Outer-Iter.   Inner-Iter.     Column Row Layer    Max.-Head-Change    Column Row Layer    Max.-Flux-Residual            L2-New               L2-Old           Solver-Max-Delh
          0                 1           7             9    5     1       0.1975281647E+00       9    5    1       0.2679300354E+03      0.3028092592E+03      0.4376500807E+00      0.1975281647E+00
          0                 2           6             9    5     1      -0.1715891600E-01       9    5    1      -0.2707617124E+02      0.3061163231E+02      0.3028092592E+03     -0.1715891600E-01
          0                 3           4             9    5     1      -0.8589830427E-03       9    5    1      -0.1355791415E+01      0.1534365244E+01      0.3061163231E+02     -0.8589830427E-03
          0                 4           2             9    5     1      -0.4259003948E-04       9    5    1      -0.6747760662E-01      0.9450402413E-01      0.1534365244E+01     -0.4259003948E-04

    ------------------------------------------------
       NWT REQUIRED            4 OUTER ITERATIONS 
       AND A TOTAL OF         19 INNER ITERATIONS.
    ------------------------------------------------
                                                   Max.-Head-Change                        Max.-Flux-Residual
  Residual-Control   Outer-Iter.   Inner-Iter.     Column Row Layer    Max.-Head-Change    Column Row Layer    Max.-Flux-Residual            L2-New               L2-Old           Solver-Max-Delh
          0                 1           6             9    5     1       0.1099801621E+00       9    5    1       0.1576196305E+03      0.1762787288E+03      0.9450402413E-01      0.1099801621E+00
          0                 2           5             9    5     1      -0.9528539811E-02       9    5    1      -0.1585148968E+02      0.1771347776E+02      0.1762787288E+03     -0.9528539811E-02
          0                 3           4             9    5     1      -0.4767313593E-03       9    5    1      -0.7931269133E+00      0.8898655338E+00      0.1771347776E+02     -0.4767313593E-03
          0                 4           2             9    5     1      -0.2373262044E-04       9    5    1      -0.3980313128E-01      0.5254092970E-01      0.8898655338E+00     -0.2373262044E-04

    ------------------------------------------------
       NWT REQUIRED            4 OUTER ITERATIONS 
       AND A TOTAL OF         17 INNER ITERATIONS.
    ------------------------------------------------
                                                   Max.-Head-Change                        Max.-Flux-Residual
  Residual-Control   Outer-Iter.   Inner-Iter.     Column Row Layer    Max.-Head-Change    Column Row Layer    Max.-Flux-Residual            L2-New               L2-Old           Solver-Max-Delh
          0                 1           6             9    5     1       0.4987577164E-01       9    5    1       0.7823218518E+02      0.8804971039E+02      0.5254092970E-01      0.4987577164E-01
          0                 2           5             9    5     1      -0.4313126551E-02       9    5    1      -0.7841250143E+01      0.8821353744E+01      0.8804971039E+02     -0.4313126551E-02
          0                 3           3             9    5     1      -0.2158744209E-03       9    5    1      -0.3920905481E+00      0.4444440875E+00      0.8821353744E+01     -0.2158744209E-03
          0                 4           2             9    5     1      -0.1076071648E-04      14   13    1      -0.2538064087E-01      0.4900928964E-01      0.4444440875E+00     -0.1076071648E-04

    ------------------------------------------------
       NWT REQUIRED            4 OUTER ITERATIONS 
       AND A TOTAL OF         16 INNER ITERATIONS.
    ------------------------------------------------
                                                   Max.-Head-Change                        Max.-Flux-Residual
  Residual-Control   Outer-Iter.   Inner-Iter.     Column Row Layer    Max.-Head-Change    Column Row Layer    Max.-Flux-Residual            L2-New               L2-Old           Solver-Max-Delh
          0                 1           6             9    5     1       0.1804867377E-01       9    5    1       0.3321424961E+02      0.3933838201E+02      0.4900928964E-01      0.1804867377E-01
          0                 2           4             9    5     1      -0.1559466494E-02       9    5    1      -0.3323847811E+01      0.3945271150E+01      0.3933838201E+02     -0.1559466494E-02
          0                 3           3             9    5     1      -0.7812563210E-04       9    5    1      -0.1660479055E+00      0.2040408364E+00      0.3945271150E+01     -0.7812563210E-04

    ------------------------------------------------
       NWT REQUIRED            3 OUTER ITERATIONS 
       AND A TOTAL OF         13 INNER ITERATIONS.
    ------------------------------------------------
                                                   Max.-Head-Change                        Max.-Flux-Residual
  Residual-Control   Outer-Iter.   Inner-Iter.     Column Row Layer    Max.-Head-Change    Column Row Layer    Max.-Flux-Residual            L2-New               L2-Old           Solver-Max-Delh
          0                 1           5             9    5     1       0.4326705784E-02       9    5    1       0.1157492423E+02      0.1758062389E+02      0.2040408364E+00      0.4326705784E-02
          0                 2           4             9    5     1      -0.3735491786E-03       9    5    1      -0.1157249253E+01      0.1770463256E+01      0.1758062389E+02     -0.3735491786E-03
          0                 3           2             9    5     1      -0.1812619416E-04       9    5    1      -0.5702796188E-01      0.9889509480E-01      0.1770463256E+01     -0.1812619416E-04

    ------------------------------------------------
       NWT REQUIRED            3 OUTER ITERATIONS 
       AND A TOTAL OF         11 INNER ITERATIONS.
    ------------------------------------------------
                                                   Max.-Head-Change                        Max.-Flux-Residual
  Residual-Control   Outer-Iter.   Inner-Iter.     Column Row Layer    Max.-Head-Change    Column Row Layer    Max.-Flux-Residual            L2-New               L2-Old           Solver-Max-Delh
          0                 1           5            10    5     1      -0.2606469439E-02      10    5    1      -0.4425522377E+01      0.9032393939E+01      0.9889509480E-01     -0.2606469439E-02
          0                 2           3            10    5     1       0.2253148188E-03      10    5    1       0.4424262689E+00      0.9136786996E+00      0.9032393939E+01      0.2253148188E-03
          0                 3           2            10    5     1       0.1092877216E-04      10    5    1       0.2188097872E-01      0.6210308797E-01      0.9136786996E+00      0.1092877216E-04

    ------------------------------------------------
       NWT REQUIRED            3 OUTER ITERATIONS 
       AND A TOTAL OF         10 INNER ITERATIONS.
    ------------------------------------------------
                                                   Max.-Head-Change                        Max.-Flux-Residual
  Residual-Control   Outer-Iter.   Inner-Iter.     Column Row Layer    Max.-Head-Change    Column Row Layer    Max.-Flux-Residual            L2-New               L2-Old           Solver-Max-Delh
          0                 1           4            10    5     1      -0.1961601536E-02      10    5    1      -0.2852344971E+01      0.4971185536E+01      0.6210308797E-01     -0.1961601536E-02
          0                 2           3            10    5     1       0.1692408614E-03      10    5    1       0.2849231917E+00      0.5042475307E+00      0.4971185536E+01      0.1692408614E-03
          0                 3           2            10    5     1       0.8298161142E-05      12   16    1       0.2513232082E-01      0.4717132965E-01      0.5042475307E+00      0.8298161142E-05

    ------------------------------------------------
       NWT REQUIRED            3 OUTER ITERATIONS 
       AND A TOTAL OF          9 INNER ITERATIONS.
    ------------------------------------------------
                                                   Max.-Head-Change                        Max.-Flux-Residual
  Residual-Control   Outer-Iter.   Inner-Iter.     Column Row Layer    Max.-Head-Change    Column Row Layer    Max.-Flux-Residual            L2-New               L2-Old           Solver-Max-Delh
          0                 1           4            10    5     1      -0.1086817705E-02      10    5    1      -0.1494410866E+01      0.2581503643E+01      0.4717132965E-01     -0.1086817705E-02
          0                 2           3            10    5     1       0.9379313491E-04      10    5    1       0.1495009009E+00      0.2652080855E+00      0.2581503643E+01      0.9379313491E-04

    ------------------------------------------------
       NWT REQUIRED            2 OUTER ITERATIONS 
       AND A TOTAL OF          7 INNER ITERATIONS.
    ------------------------------------------------
                                                   Max.-Head-Change                        Max.-Flux-Residual
  Residual-Control   Outer-Iter.   Inner-Iter.     Column Row Layer    Max.-Head-Change    Column Row Layer    Max.-Flux-Residual            L2-New               L2-Old           Solver-Max-Delh
          0                 1           4             9    5     1      -0.4859232144E-03      10    5    1      -0.6452846074E+00      0.1249653215E+01      0.2652080855E+00     -0.4859232144E-03
          0                 2           2             9    5     1       0.4162176211E-04      10    5    1       0.6442574406E-01      0.1352153439E+00      0.1249653215E+01      0.4162176211E-04

    ------------------------------------------------
       NWT REQUIRED            2 OUTER ITERATIONS 
       AND A TOTAL OF          6 INNER ITERATIONS.
    ------------------------------------------------

 OUTPUT CONTROL FOR STRESS PERIOD     17   TIME STEP     1
    SAVE BUDGET
 UBDSV1 SAVING "         STORAGE" ON UNIT  70 AT TIME STEP    1, STRESS PERIOD  17
 UBDSV2 SAVING "   CONSTANT HEAD" ON UNIT  70 AT TIME STEP    1, STRESS PERIOD  17
 UBDSV1 SAVING "FLOW RIGHT FACE " ON UNIT  70 AT TIME STEP    1, STRESS PERIOD  17
 UBDSV1 SAVING "FLOW FRONT FACE " ON UNIT  70 AT TIME STEP    1, STRESS PERIOD  17
 UBDSV1 SAVING "FLOW LOWER FACE " ON UNIT  70 AT TIME STEP    1, STRESS PERIOD  17
 UBDSV4 SAVING " HEAD DEP BOUNDS" ON UNIT  70 AT TIME STEP    1, STRESS PERIOD  17
 UBDSV4 SAVING "  STREAM LEAKAGE" ON UNIT  70 AT TIME STEP    1, STRESS PERIOD  17



 UBDSV4 SAVING "             MNW" ON UNIT  70 AT TIME STEP    1, STRESS PERIOD  17
 
 
 
 
 
 
 
 
 UBDSV3 SAVING "FARM  NET  RECH." ON UNIT  70 AT TIME STEP    1, STRESS PERIOD  17
 UBDSV4 SAVING " GHOST-NODE FLUX" ON UNIT  70 AT TIME STEP    1, STRESS PERIOD  17
 UBDSV4 SAVING " GHOST-NODE FLUX" ON UNIT  70 AT TIME STEP    1, STRESS PERIOD  17
 UBDSV4 SAVING " GHOST-NODE FLUX" ON UNIT  70 AT TIME STEP    1, STRESS PERIOD  17
 
 SOLVING FOR HEAD 
                                                   Max.-Head-Change                        Max.-Flux-Residual
  Residual-Control   Outer-Iter.   Inner-Iter.     Column Row Layer    Max.-Head-Change    Column Row Layer    Max.-Flux-Residual            L2-New               L2-Old           Solver-Max-Delh
          0                 1           8            19    3     4      -0.2165304061E+01       9    5    1      -0.7577707113E+03      0.2467478515E+04      0.1352153439E+00     -0.2165304061E+01
          0                 2           7            19    3     4       0.5127011864E+00      19    3    3       0.7995426550E+02      0.2688513561E+03      0.2467478515E+04      0.5127011864E+00
          0                 3           6            19    3     3       0.9098643982E-01       2    8    1       0.3180886977E+02      0.6273987919E+02      0.2688513561E+03      0.9098643982E-01
          0                 4           5            19    3     3       0.2087348965E-01       2    8    1       0.1064291498E+02      0.1854113088E+02      0.6273987919E+02      0.2087348965E-01
          0                 5           5            19    3     3       0.4944311585E-02       2    8    1       0.3320513314E+01      0.5503689880E+01      0.1854113088E+02      0.4944311585E-02
          0                 6           4            19    3     3       0.1179332349E-02       2    8    1       0.1021934168E+01      0.1637370274E+01      0.5503689880E+01      0.1179332349E-02
          0                 7           3            19    3     3       0.2820217616E-03       2    8    1       0.3131531886E+00      0.4912264854E+00      0.1637370274E+01      0.2820217616E-03
          0                 8           3            19    3     3       0.6736860062E-04       2    8    1       0.9580441262E-01      0.1485730455E+00      0.4912264854E+00      0.6736860062E-04

    ------------------------------------------------
       NWT REQUIRED            8 OUTER ITERATIONS 
       AND A TOTAL OF         41 INNER ITERATIONS.
    ------------------------------------------------
                                                   Max.-Head-Change                        Max.-Flux-Residual
  Residual-Control   Outer-Iter.   Inner-Iter.     Column Row Layer    Max.-Head-Change    Column Row Layer    Max.-Flux-Residual            L2-New               L2-Old           Solver-Max-Delh
          0                 1           7             9    9     1      -0.2623030132E+00      14   16    1      -0.4589617885E+03      0.6556747576E+03      0.1485730455E+00     -0.2623030132E+00
          0                 2           6            19    3     3       0.3777943980E-01      13   16    1      -0.4526279690E+02      0.8806374045E+02      0.6556747576E+03      0.3777943980E-01
          0                 3           5            19    3     3       0.8290132528E-02      19    3    2       0.2537406798E+01      0.4869885025E+01      0.8806374045E+02      0.8290132528E-02
          0                 4           4            19    3     3       0.1939380105E-02      19    3    2       0.6172529420E+00      0.8219287852E+00      0.4869885025E+01      0.1939380105E-02
          0                 5           3            19    3     3       0.4612749239E-03      19    3    2       0.1476566802E+00      0.1922362976E+00      0.8219287852E+00      0.4612749239E-03
          0                 6           2            19    3     3       0.1076393553E-03      19    3    2       0.3528504630E-01      0.5180905057E-01      0.1922362976E+00      0.1076393553E-03
          0                 7           2            19    3     3       0.2680929928E-04      18   17    1       0.1090681728E-01      0.2410851775E-01      0.5180905057E-01      0.2680929928E-04

    ------------------------------------------------
       NWT REQUIRED            7 OUTER ITERATIONS 
       AND A TOTAL OF         29 INNER ITERATIONS.
    ------------------------------------------------
                                                   Max.-Head-Change                        Max.-Flux-Residual
  Residual-Control   Outer-Iter.   Inner-Iter.     Column Row Layer    Max.-Head-Change    Column Row Layer    Max.-Flux-Residual            L2-New               L2-Old           Solver-Max-Delh
          0                 1           6            12   10     1      -0.1936058381E+00      12   10    1      -0.4679995968E+03      0.4836596845E+03      0.2410851775E-01     -0.1936058381E+00
          0                 2           5            12   10     1       0.1091237841E-01      12   10    1       0.3649980256E+02      0.5585826457E+02      0.4836596845E+03      0.1091237841E-01
          0                 3           4            19    3     3       0.7893138942E-03      12   12    1       0.2240142507E+01      0.3369091504E+01      0.5585826457E+02      0.7893138942E-03
          0                 4           3            19    3     3       0.1851826064E-03      12   12    1       0.1514098699E+00      0.2457183550E+00      0.3369091504E+01      0.1851826064E-03
          0                 5           2            19    3     3       0.4311986266E-04      12   13    1      -0.1648430503E-01      0.3725170268E-01      0.2457183550E+00      0.4311986266E-04

    ------------------------------------------------
       NWT REQUIRED            5 OUTER ITERATIONS 
       AND A TOTAL OF         20 INNER ITERATIONS.
    ------------------------------------------------
                                                   Max.-Head-Change                        Max.-Flux-Residual
  Residual-Control   Outer-Iter.   Inner-Iter.     Column Row Layer    Max.-Head-Change    Column Row Layer    Max.-Flux-Residual            L2-New               L2-Old           Solver-Max-Delh
          0                 1           6             9    5     1       0.3470725872E-01       9    9    1       0.4325578999E+02      0.9342952600E+02      0.3725170268E-01      0.3470725872E-01
          0                 2           5             9    5     1      -0.3000212240E-02       9    9    1      -0.4328414998E+01      0.9433632632E+01      0.9342952600E+02     -0.3000212240E-02
          0                 3           3             9    5     1      -0.1497965038E-03       9    9    1      -0.2161825480E+00      0.4857172401E+00      0.9433632632E+01     -0.1497965038E-03
          0                 4           2            19    3     3       0.1612508823E-04      16   11    1      -0.2372716588E-01      0.5001274012E-01      0.4857172401E+00      0.1612508823E-04

    ------------------------------------------------
       NWT REQUIRED            4 OUTER ITERATIONS 
       AND A TOTAL OF         16 INNER ITERATIONS.
    ------------------------------------------------
                                                   Max.-Head-Change                        Max.-Flux-Residual
  Residual-Control   Outer-Iter.   Inner-Iter.     Column Row Layer    Max.-Head-Change    Column Row Layer    Max.-Flux-Residual            L2-New               L2-Old           Solver-Max-Delh
          0                 1           6             9    5     1       0.2512600020E-01       9    9    1       0.2892950409E+02      0.5509778380E+02      0.5001274012E-01      0.2512600020E-01
          0                 2           5             9    5     1      -0.2171274782E-02       9    9    1      -0.2894684765E+01      0.5577125084E+01      0.5509778380E+02     -0.2171274782E-02
          0                 3           3             9    5     1      -0.1088322103E-03       9    9    1      -0.1444436262E+00      0.2789397592E+00      0.5577125084E+01     -0.1088322103E-03
          0                 4           2             9    9     1      -0.5312202259E-05       2    8    1      -0.7893615984E-02      0.2367259576E-01      0.2789397592E+00     -0.5312202259E-05

    ------------------------------------------------
       NWT REQUIRED            4 OUTER ITERATIONS 
       AND A TOTAL OF         16 INNER ITERATIONS.
    ------------------------------------------------
                                                   Max.-Head-Change                        Max.-Flux-Residual
  Residual-Control   Outer-Iter.   Inner-Iter.     Column Row Layer    Max.-Head-Change    Column Row Layer    Max.-Flux-Residual            L2-New               L2-Old           Solver-Max-Delh
          0                 1           6             9    5     1       0.1394759575E-01       9    5    1       0.1408854646E+02      0.2835958248E+02      0.2367259576E-01      0.1394759575E-01
          0                 2           4             9    5     1      -0.1205327614E-02       9    5    1      -0.1410415848E+01      0.2897154587E+01      0.2835958248E+02     -0.1205327614E-02
          0                 3           3             9    5     1      -0.6018772915E-04       9    5    1      -0.7019650986E-01      0.1477188794E+00      0.2897154587E+01     -0.6018772915E-04

    ------------------------------------------------
       NWT REQUIRED            3 OUTER ITERATIONS 
       AND A TOTAL OF         13 INNER ITERATIONS.
    ------------------------------------------------
                                                   Max.-Head-Change                        Max.-Flux-Residual
  Residual-Control   Outer-Iter.   Inner-Iter.     Column Row Layer    Max.-Head-Change    Column Row Layer    Max.-Flux-Residual            L2-New               L2-Old           Solver-Max-Delh
          0                 1           5             9    5     1       0.6368081309E-02       9    5    1       0.6834758171E+01      0.1385842883E+02      0.1477188794E+00      0.6368081309E-02
          0                 2           4             9    5     1      -0.5498695589E-03       9    5    1      -0.6836105482E+00      0.1428246975E+01      0.1385842883E+02     -0.5498695589E-03
          0                 3           3             9    5     1      -0.2776060447E-04       9    5    1      -0.3436386015E-01      0.8540863022E-01      0.1428246975E+01     -0.2776060447E-04

    ------------------------------------------------
       NWT REQUIRED            3 OUTER ITERATIONS 
       AND A TOTAL OF         12 INNER ITERATIONS.
    ------------------------------------------------
                                                   Max.-Head-Change                        Max.-Flux-Residual
  Residual-Control   Outer-Iter.   Inner-Iter.     Column Row Layer    Max.-Head-Change    Column Row Layer    Max.-Flux-Residual            L2-New               L2-Old           Solver-Max-Delh
          0                 1           5             9    5     1       0.2334281592E-02       9    5    1       0.2761106343E+01      0.7202565808E+01      0.8540863022E-01      0.2334281592E-02
          0                 2           4             9    5     1      -0.2016075529E-03       9    5    1      -0.2762386191E+00      0.7508235309E+00      0.7202565808E+01     -0.2016075529E-03
          0                 3           2             9    5     1      -0.1004343212E-04       9    5    1      -0.1377705467E-01      0.4924387165E-01      0.7508235309E+00     -0.1004343212E-04

    ------------------------------------------------
       NWT REQUIRED            3 OUTER ITERATIONS 
       AND A TOTAL OF         11 INNER ITERATIONS.
    ------------------------------------------------
                                                   Max.-Head-Change                        Max.-Flux-Residual
  Residual-Control   Outer-Iter.   Inner-Iter.     Column Row Layer    Max.-Head-Change    Column Row Layer    Max.-Flux-Residual            L2-New               L2-Old           Solver-Max-Delh
          0                 1           4             6    6     1       0.9969336328E-03      10   11    1       0.1477833650E+01      0.3905006714E+01      0.4924387165E-01      0.9969336328E-03
          0                 2           3             6    6     1      -0.8609001264E-04      10   11    1      -0.1481784396E+00      0.4071282941E+00      0.3905006714E+01     -0.8609001264E-04

    ------------------------------------------------
       NWT REQUIRED            2 OUTER ITERATIONS 
       AND A TOTAL OF          7 INNER ITERATIONS.
    ------------------------------------------------
                                                   Max.-Head-Change                        Max.-Flux-Residual
  Residual-Control   Outer-Iter.   Inner-Iter.     Column Row Layer    Max.-Head-Change    Column Row Layer    Max.-Flux-Residual            L2-New               L2-Old           Solver-Max-Delh
          0                 1           4            10   11     1       0.5561552298E-03       9    9    1      -0.8026334165E+00      0.1978987867E+01      0.4071282941E+00      0.5561552298E-03
          0                 2           3            10   11     1      -0.4727082022E-04       9    9    1       0.8045166190E-01      0.2160471151E+00      0.1978987867E+01     -0.4727082022E-04

    ------------------------------------------------
       NWT REQUIRED            2 OUTER ITERATIONS 
       AND A TOTAL OF          7 INNER ITERATIONS.
    ------------------------------------------------
                                                   Max.-Head-Change                        Max.-Flux-Residual
  Residual-Control   Outer-Iter.   Inner-Iter.     Column Row Layer    Max.-Head-Change    Column Row Layer    Max.-Flux-Residual            L2-New               L2-Old           Solver-Max-Delh
          0                 1           3            11   11     1       0.2988826494E-03      11   11    1       0.4188841261E+00      0.9412629331E+00      0.2160471151E+00      0.2988826494E-03
          0                 2           2            11   11     1      -0.2433509045E-04      11   11    1      -0.4246082297E-01      0.1065931315E+00      0.9412629331E+00     -0.2433509045E-04

    ------------------------------------------------
       NWT REQUIRED            2 OUTER ITERATIONS 
       AND A TOTAL OF          5 INNER ITERATIONS.
    ------------------------------------------------

 OUTPUT CONTROL FOR STRESS PERIOD     17   TIME STEP     2
    SAVE BUDGET
 UBDSV1 SAVING "         STORAGE" ON UNIT  70 AT TIME STEP    2, STRESS PERIOD  17
 UBDSV2 SAVING "   CONSTANT HEAD" ON UNIT  70 AT TIME STEP    2, STRESS PERIOD  17
 UBDSV1 SAVING "FLOW RIGHT FACE " ON UNIT  70 AT TIME STEP    2, STRESS PERIOD  17
 UBDSV1 SAVING "FLOW FRONT FACE " ON UNIT  70 AT TIME STEP    2, STRESS PERIOD  17
 UBDSV1 SAVING "FLOW LOWER FACE " ON UNIT  70 AT TIME STEP    2, STRESS PERIOD  17
 UBDSV4 SAVING " HEAD DEP BOUNDS" ON UNIT  70 AT TIME STEP    2, STRESS PERIOD  17
 UBDSV4 SAVING "  STREAM LEAKAGE" ON UNIT  70 AT TIME STEP    2, STRESS PERIOD  17



 UBDSV4 SAVING "             MNW" ON UNIT  70 AT TIME STEP    2, STRESS PERIOD  17
 
 
 
 
 
 
 
 
 UBDSV3 SAVING "FARM  NET  RECH." ON UNIT  70 AT TIME STEP    2, STRESS PERIOD  17
 UBDSV4 SAVING " GHOST-NODE FLUX" ON UNIT  70 AT TIME STEP    2, STRESS PERIOD  17
 UBDSV4 SAVING " GHOST-NODE FLUX" ON UNIT  70 AT TIME STEP    2, STRESS PERIOD  17
 UBDSV4 SAVING " GHOST-NODE FLUX" ON UNIT  70 AT TIME STEP    2, STRESS PERIOD  17
1
  VOLUMETRIC BUDGET FOR ENTIRE MODEL AT END OF TIME STEP    2 IN STRESS PERIOD     17
  ------------------------------------------------------------------------------

     CUMULATIVE VOLUMES      L**3       RATES FOR THIS TIME STEP      L**3/T
     ------------------                 ------------------------

           IN:                                      IN:
           ---                                      ---
             STORAGE =    14521767.0000               STORAGE =       38165.7500
       CONSTANT HEAD =           0.0000         CONSTANT HEAD =           0.0000
     HEAD DEP BOUNDS =     3722455.0000       HEAD DEP BOUNDS =        7499.1279
      STREAM LEAKAGE =     8810817.0000        STREAM LEAKAGE =       15938.6523
                 MNW =       36021.4414                   MNW =           0.0000
          FARM WELLS =           0.0000            FARM WELLS =           0.0000
    FARM  NET  RECH. =    10229942.0000      FARM  NET  RECH. =        9780.8066
     GHOST-NODE FLUX =     3091221.5000       GHOST-NODE FLUX =        8122.8096

            TOTAL IN =    40412224.0000              TOTAL IN =       79507.1484

          OUT:                                     OUT:
          ----                                     ----
             STORAGE =     8035268.0000               STORAGE =           0.0000
       CONSTANT HEAD =           0.0000         CONSTANT HEAD =           0.0000
     HEAD DEP BOUNDS =     8849330.0000       HEAD DEP BOUNDS =       16611.3574
      STREAM LEAKAGE =      693001.1250        STREAM LEAKAGE =         604.1573
                 MNW =     4231457.0000                   MNW =       23705.3359
          FARM WELLS =     4859184.0000            FARM WELLS =       22834.4727
    FARM  NET  RECH. =     1935836.5000      FARM  NET  RECH. =        6588.8491
     GHOST-NODE FLUX =    11808148.0000       GHOST-NODE FLUX =        9162.9951

           TOTAL OUT =    40412224.0000             TOTAL OUT =       79507.1641

            IN - OUT =           0.0000              IN - OUT =      -1.5625E-02

 PERCENT DISCREPANCY =           0.00     PERCENT DISCREPANCY =          -0.00






          TIME SUMMARY AT END OF TIME STEP     2 IN STRESS PERIOD     17
                    SECONDS     MINUTES      HOURS       DAYS        YEARS
                    -----------------------------------------------------------
   TIME STEP LENGTH 1.31414E+06  21902.      365.04      15.210     4.16427E-02
 STRESS PERIOD TIME 2.62829E+06  43805.      730.08      30.420     8.32854E-02
         TOTAL TIME 4.46809E+07 7.44681E+05  12411.      517.14      1.4159    
1
1
                            STRESS PERIOD NO.     18, LENGTH =   30.42000    
                            -----------------------------------------------

                              NUMBER OF TIME STEPS =     2

                               MULTIPLIER FOR DELT =     1.000

                            INITIAL TIME STEP SIZE =   15.21000    

 REUSING NON-PARAMETER GHB CELLS FROM LAST STRESS PERIOD

     92 GHB CELLS

 REUSING STREAM SEGMENT DATA FROM LAST STRESS PERIOD

 REUSING MNW7  FROM LAST STRESS PERIOD

 Parameter:  WELLS1
 WELL NO. LAYER    ROW    COL  F-WELL ID    FARM ID         QMAX         QMAXRESET       
 ----------------------------------------------------------------------------------------
       1      1      5      6          1          1      5.0000E+03              0
       2      1      8      7          2          1      5.0000E+03              0
       3      1      8      9          3          1      5.0000E+03              0
       4      1      5      9          4          2      3.0000E+03              0
       5      1      6     10          5          2      2.0000E+03              0
       6      1      7     11          6          2      1.0000E+03              0
       7      1     18      3          7          3      2.0000E+03              0
       8      1     21      3          8          3      4.0000E+03              0
       9      1     18     19          9          4      3.0000E+03              0
      10      1     21     19         10          4      5.0000E+03              0
      11      0      6      2        -11          5      5.0000E+03              1
      12      0      8      2        -12          5      5.0000E+03              1
      13      0     10      2        -13          5      5.0000E+03              1
      14      0      3     19        -14          6      1.0000E+04              1
      15      0      6     17        -15          6      6.0000E+03              1

 NUMBER OF ACTIVE FARM WELLS:       15

 THE SINGLE LAYER FMP- OR MNW- WELL IN ROW      8 AND COLUMN      7 IS LOCATED IN AN INACTIVE CELL (IBOUND=0) AND HAS BEEN EXCLUDED FROM THE TOTAL MAXIMUM CAPACITY PER FARM

 THE SINGLE LAYER FMP- OR MNW- WELL IN ROW      8 AND COLUMN      9 IS LOCATED IN AN INACTIVE CELL (IBOUND=0) AND HAS BEEN EXCLUDED FROM THE TOTAL MAXIMUM CAPACITY PER FARM

 THE SINGLE LAYER FMP- OR MNW- WELL IN ROW      6 AND COLUMN     10 IS LOCATED IN AN INACTIVE CELL (IBOUND=0) AND HAS BEEN EXCLUDED FROM THE TOTAL MAXIMUM CAPACITY PER FARM

 THE SINGLE LAYER FMP- OR MNW- WELL IN ROW      7 AND COLUMN     11 IS LOCATED IN AN INACTIVE CELL (IBOUND=0) AND HAS BEEN EXCLUDED FROM THE TOTAL MAXIMUM CAPACITY PER FARM

 FARM-ID  NUMBER OF WELLS PER FARM  TOTAL MAX.CAPACITY PER FARM
       1                         1                    5000.0000
       2                         1                    3000.0000
       3                         2                    6000.0000
       4                         2                    8000.0000
       5                         3                   15000.0000
       6                         2                   16000.0000
       7                         0                       0.0000
       8                         0                       0.0000

 READING LIST ON UNIT   20 WITH FILE NAME: C:\MF_OWHM_Release_Package\MF_OWHM_v1_0\examples\test-run-owhm-lgr\fmp-lgr-nwt\DATA_FMP\OFE.in
 LIST SCALING FACTOR=  1.0000    
 (THE SCALE FACTOR WAS APPLIED TO FIELDS   2 -   7)

 Reading list on unit   30

 Reading list on unit   40

  REF. EVAPOTRANSPIRATION =  6.880000E-03

 READING LIST ON UNIT   50 WITH FILE NAME: C:\MF_OWHM_Release_Package\MF_OWHM_v1_0\examples\test-run-owhm-lgr\fmp-lgr-nwt\DATA_FMP\FTE.in

Transpiratory and Evaporative Fractions of Crop Consumptive Use
    % Transpiration % Evap. for Precip. % Evap. for Irrig.
    1          0.914          0.086          0.086
    2          0.950          0.050          0.050
    3          0.000          1.000          1.000
    4          0.125          0.875          0.875
    5          0.927          0.073          0.000
    6          0.900          0.100          0.000

 READING LIST ON UNIT   60 WITH FILE NAME: C:\MF_OWHM_Release_Package\MF_OWHM_v1_0\examples\test-run-owhm-lgr\fmp-lgr-nwt\DATA_FMP\INEFFSW.in

FRACTIONS OF IN-EFFICIENT LOSSES TO SW-RUNOFF FROM 
     PRECIPITATION:  IRRIGATION:
    1          0.500          0.600
    2          0.400          0.300
    3          0.600          0.500
    4          0.700          0.600
    5          0.500          0.000
    6          0.300          0.000

       PRECIPITATION FLUX =  1.300000E-04

 OPENING FILE WITH FILENAME: ./DATA_FMP/NRDV.in
 AND UNIT NUMBER: -164
 READING SCALE FACTOR LIST ON UNIT   80 ASSOCIATED WITH FILE: C:\MF_OWHM_Release_Package\MF_OWHM_v1_0\examples\test-run-owhm-lgr\fmp-lgr-nwt\DATA_FMP\NRDV.in
 FIELD     SCALE FACTOR
     1       1.0000    
     2       6.0000    
     3       1.0000    
     4       1.0000    

UNRANKED LIST OF NON-ROUTED DELIVERIES TO FARMS [L3]:
TYPE:             1

FARM-ID  VOLUME:
      1   9.000E+04
      2   9.000E+04
      3   1.200E+05
      4   6.000E+04
      5   6.000E+04
      6   1.200E+05
      7   0.000E+00
      8   0.000E+00

FARM-ID  PRIORITY RANK OF NRD-TYPE:
      1           1
      2           1
      3           1
      4           1
      5           1
      6           1
      7           1
      8           1

FARM-ID  USE-FLAG:
         0 = SUFFICIENT USE
         1 = ABSOLUTE USE (RECHARGE SURPLUS BACK INTO CANAL)
         2 = ABSOLUTE USE (INJECT SURPLUS INTO FARM-WELLS)
      1           0
      2           0
      3           0
      4           0
      5           0
      6           0
      7           0
      8           0

LIST OF NON-ROUTED DELIVERIES IN RANKED SEQUENCE [L3/T]:

FARM-ID  RATE:
      1   2.959E+03
      2   2.959E+03
      3   3.945E+03
      4   1.972E+03
      5   1.972E+03
      6   3.945E+03
      7   0.000E+00
      8   0.000E+00

FARM-ID  USE-FLAG:
         0 = SUFFICIENT USE
         1 = ABSOLUTE USE (RECHARGE SURPLUS BACK INTO CANAL)
         2 = ABSOLUTE USE (INJECT SURPLUS INTO FARM-WELLS)
      1           0
      2           0
      3           0
      4           0
      5           0
      6           0
      7           0
      8           0

SURFACE-WATER FARM ALLOTMENT HEIGHT [L]:   0.050
 
 SOLVING FOR HEAD 
                                                   Max.-Head-Change                        Max.-Flux-Residual
  Residual-Control   Outer-Iter.   Inner-Iter.     Column Row Layer    Max.-Head-Change    Column Row Layer    Max.-Flux-Residual            L2-New               L2-Old           Solver-Max-Delh
          0                 1           9             9    5     1       0.3352898645E+01       9    5    1       0.6193459619E+04      0.1023359790E+05      0.1065931315E+00      0.3352898645E+01
          0                 2           8             6    5     1      -0.1986649783E+01       6    5    1      -0.5511631258E+04      0.9172713751E+04      0.1023359790E+05     -0.1986649783E+01
          0                 3           8             9    5     1      -0.1828767269E+01       9    5    1      -0.3613961961E+04      0.4563917292E+04      0.9172713751E+04     -0.1828767269E+01
          0                 4           7             9    5     1       0.1628514855E+00       9    5    1       0.3520473728E+03      0.5483195214E+03      0.4563917292E+04      0.1628514855E+00
          0                 5           6            15   16     1       0.2912321018E-01      15   16    1       0.1052314117E+03      0.1368458773E+03      0.5483195214E+03      0.2912321018E-01
          0                 6           5            15   16     1       0.9637821495E-02      15   16    1       0.3655687367E+02      0.4198295555E+02      0.1368458773E+03      0.9637821495E-02
          0                 7           4            15   16     1       0.2503674893E-02      15   16    1       0.9691001732E+01      0.1142227207E+02      0.4198295555E+02      0.2503674893E-02
          0                 8           4            15   16     1       0.5775221685E-03      15   16    1       0.2266928738E+01      0.2942509224E+01      0.1142227207E+02      0.5775221685E-03
          0                 9           3            15   16     1       0.1315123435E-03      15   16    1       0.5103935829E+00      0.8037915561E+00      0.2942509224E+01      0.1315123435E-03
          0                10           2            12   12     1      -0.2699599478E-04      12   12    1      -0.1366869065E+00      0.2278111954E+00      0.8037915561E+00     -0.2699599478E-04

    ------------------------------------------------
       NWT REQUIRED           10 OUTER ITERATIONS 
       AND A TOTAL OF         56 INNER ITERATIONS.
    ------------------------------------------------
                                                   Max.-Head-Change                        Max.-Flux-Residual
  Residual-Control   Outer-Iter.   Inner-Iter.     Column Row Layer    Max.-Head-Change    Column Row Layer    Max.-Flux-Residual            L2-New               L2-Old           Solver-Max-Delh
          0                 1           7             9    9     1      -0.3585317385E+00      14   16    1      -0.5327542673E+03      0.1040520176E+04      0.2278111954E+00     -0.3585317385E+00
          0                 2           6             9    9     1       0.2904149804E-01      12   12    1      -0.5739044651E+02      0.1391529060E+03      0.1040520176E+04      0.2904149804E-01
          0                 3           5            19    3     3       0.6262246376E-02      12   12    1       0.6655859115E+01      0.1136501056E+02      0.1391529060E+03      0.6262246376E-02
          0                 4           4            19    3     3       0.1464667161E-02      12   11    1      -0.8286968477E+00      0.1208575760E+01      0.1136501056E+02      0.1464667161E-02
          0                 5           3            19    3     3       0.3480306798E-03      12   12    1      -0.1429797496E+00      0.2461333139E+00      0.1208575760E+01      0.3480306798E-03
          0                 6           2            19    3     3       0.8122399167E-04      12   12    1      -0.5046366306E-01      0.7284768160E-01      0.2461333139E+00      0.8122399167E-04

    ------------------------------------------------
       NWT REQUIRED            6 OUTER ITERATIONS 
       AND A TOTAL OF         27 INNER ITERATIONS.
    ------------------------------------------------
                                                   Max.-Head-Change                        Max.-Flux-Residual
  Residual-Control   Outer-Iter.   Inner-Iter.     Column Row Layer    Max.-Head-Change    Column Row Layer    Max.-Flux-Residual            L2-New               L2-Old           Solver-Max-Delh
          0                 1           7            12   10     1      -0.2250923427E+00      12   10    1      -0.5504344862E+03      0.6336880441E+03      0.7284768160E-01     -0.2250923427E+00
          0                 2           7            12   11     1      -0.2012031188E+00      12   11    1      -0.4123402818E+03      0.4382754679E+03      0.6336880441E+03     -0.2012031188E+00
          0                 3           5            12   11     1       0.1524714621E-01      12   11    1       0.4052562505E+02      0.4100337497E+02      0.4382754679E+03      0.1524714621E-01
          0                 4           4            12   11     1       0.7613406068E-03      12   11    1       0.2022383447E+01      0.2053749416E+01      0.4100337497E+02      0.7613406068E-03
          0                 5           2            12   11     1       0.3894727984E-04      12   11    1       0.1012716773E+00      0.1170237814E+00      0.2053749416E+01      0.3894727984E-04

    ------------------------------------------------
       NWT REQUIRED            5 OUTER ITERATIONS 
       AND A TOTAL OF         25 INNER ITERATIONS.
    ------------------------------------------------
                                                   Max.-Head-Change                        Max.-Flux-Residual
  Residual-Control   Outer-Iter.   Inner-Iter.     Column Row Layer    Max.-Head-Change    Column Row Layer    Max.-Flux-Residual            L2-New               L2-Old           Solver-Max-Delh
          0                 1           6             9    5     1      -0.8238852401E-01       9    5    1      -0.1267436923E+03      0.1801547247E+03      0.1170237814E+00     -0.8238852401E-01
          0                 2           5             9    5     1       0.7099568517E-02       9    5    1       0.1262413216E+02      0.1819753625E+02      0.1801547247E+03      0.7099568517E-02
          0                 3           4             9    5     1       0.3547939002E-03       9    5    1       0.6309499790E+00      0.9182702485E+00      0.1819753625E+02      0.3547939002E-03
          0                 4           2             9    5     1       0.1769899350E-04       2    8    1      -0.3272450576E-01      0.7210808220E-01      0.9182702485E+00      0.1769899350E-04

    ------------------------------------------------
       NWT REQUIRED            4 OUTER ITERATIONS 
       AND A TOTAL OF         17 INNER ITERATIONS.
    ------------------------------------------------
                                                   Max.-Head-Change                        Max.-Flux-Residual
  Residual-Control   Outer-Iter.   Inner-Iter.     Column Row Layer    Max.-Head-Change    Column Row Layer    Max.-Flux-Residual            L2-New               L2-Old           Solver-Max-Delh
          0                 1           6             9    5     1      -0.3447553523E-01       9    5    1      -0.6214386339E+02      0.8393848773E+02      0.7210808220E-01     -0.3447553523E-01
          0                 2           5             9    5     1       0.2975226055E-02       9    5    1       0.6206364153E+01      0.8449075028E+01      0.8393848773E+02      0.2975226055E-02
          0                 3           3             9    5     1       0.1488999562E-03       9    5    1       0.3105068594E+00      0.4279484028E+00      0.8449075028E+01      0.1488999562E-03
          0                 4           2             2    8     3      -0.8223402695E-05       2    8    1      -0.1626888639E-01      0.3932339259E-01      0.4279484028E+00     -0.8223402695E-05

    ------------------------------------------------
       NWT REQUIRED            4 OUTER ITERATIONS 
       AND A TOTAL OF         16 INNER ITERATIONS.
    ------------------------------------------------
                                                   Max.-Head-Change                        Max.-Flux-Residual
  Residual-Control   Outer-Iter.   Inner-Iter.     Column Row Layer    Max.-Head-Change    Column Row Layer    Max.-Flux-Residual            L2-New               L2-Old           Solver-Max-Delh
          0                 1           6            12   10     1       0.1089174217E-01       9    5    1      -0.2546635786E+02      0.3828704159E+02      0.3932339259E-01      0.1089174217E-01
          0                 2           4            12   10     1      -0.9406902688E-03       9    5    1       0.2546859641E+01      0.3843931957E+01      0.3828704159E+02     -0.9406902688E-03
          0                 3           3            12   10     1      -0.4690308103E-04       9    5    1       0.1273742853E+00      0.1981898411E+00      0.3843931957E+01     -0.4690308103E-04

    ------------------------------------------------
       NWT REQUIRED            3 OUTER ITERATIONS 
       AND A TOTAL OF         13 INNER ITERATIONS.
    ------------------------------------------------
                                                   Max.-Head-Change                        Max.-Flux-Residual
  Residual-Control   Outer-Iter.   Inner-Iter.     Column Row Layer    Max.-Head-Change    Column Row Layer    Max.-Flux-Residual            L2-New               L2-Old           Solver-Max-Delh
          0                 1           5            12   10     1       0.7180845877E-02      12   10    1       0.1011125292E+02      0.2040246934E+02      0.1981898411E+00      0.7180845877E-02
          0                 2           4            12   10     1      -0.6195001418E-03      12   10    1      -0.1011734780E+01      0.2049127484E+01      0.2040246934E+02     -0.6195001418E-03
          0                 3           3            12   10     1      -0.3098023481E-04      12   10    1      -0.5045537057E-01      0.1071610442E+00      0.2049127484E+01     -0.3098023481E-04

    ------------------------------------------------
       NWT REQUIRED            3 OUTER ITERATIONS 
       AND A TOTAL OF         12 INNER ITERATIONS.
    ------------------------------------------------
                                                   Max.-Head-Change                        Max.-Flux-Residual
  Residual-Control   Outer-Iter.   Inner-Iter.     Column Row Layer    Max.-Head-Change    Column Row Layer    Max.-Flux-Residual            L2-New               L2-Old           Solver-Max-Delh
          0                 1           5             9    9     1      -0.4090027929E-02       9    9    1      -0.5477747908E+01      0.1112341646E+02      0.1071610442E+00     -0.4090027929E-02
          0                 2           4             9    9     1       0.3434225878E-03       9    9    1       0.5476262895E+00      0.1119066279E+01      0.1112341646E+02      0.3434225878E-03
          0                 3           2             9    9     1       0.1790890845E-04       9    9    1       0.2754367364E-01      0.6436029514E-01      0.1119066279E+01      0.1790890845E-04

    ------------------------------------------------
       NWT REQUIRED            3 OUTER ITERATIONS 
       AND A TOTAL OF         11 INNER ITERATIONS.
    ------------------------------------------------
                                                   Max.-Head-Change                        Max.-Flux-Residual
  Residual-Control   Outer-Iter.   Inner-Iter.     Column Row Layer    Max.-Head-Change    Column Row Layer    Max.-Flux-Residual            L2-New               L2-Old           Solver-Max-Delh
          0                 1           5            10    5     1       0.2085332361E-02       9    9    1      -0.2574711183E+01      0.5226826236E+01      0.6436029514E-01      0.2085332361E-02
          0                 2           3            10    5     1      -0.1800929056E-03       9    9    1       0.2577600071E+00      0.5313851593E+00      0.5226826236E+01     -0.1800929056E-03
          0                 3           2            10    5     1      -0.8992406730E-05      12   19    1       0.1392800198E-01      0.3938390702E-01      0.5313851593E+00     -0.8992406730E-05

    ------------------------------------------------
       NWT REQUIRED            3 OUTER ITERATIONS 
       AND A TOTAL OF         10 INNER ITERATIONS.
    ------------------------------------------------
                                                   Max.-Head-Change                        Max.-Flux-Residual
  Residual-Control   Outer-Iter.   Inner-Iter.     Column Row Layer    Max.-Head-Change    Column Row Layer    Max.-Flux-Residual            L2-New               L2-Old           Solver-Max-Delh
          0                 1           4            10    5     1       0.1005899986E-02      10    5    1       0.1177982535E+01      0.2099286467E+01      0.3938390702E-01      0.1005899986E-02
          0                 2           3            10    5     1      -0.8707629200E-04      10    5    1      -0.1179887778E+00      0.2185017099E+00      0.2099286467E+01     -0.8707629200E-04

    ------------------------------------------------
       NWT REQUIRED            2 OUTER ITERATIONS 
       AND A TOTAL OF          7 INNER ITERATIONS.
    ------------------------------------------------
                                                   Max.-Head-Change                        Max.-Flux-Residual
  Residual-Control   Outer-Iter.   Inner-Iter.     Column Row Layer    Max.-Head-Change    Column Row Layer    Max.-Flux-Residual            L2-New               L2-Old           Solver-Max-Delh
          0                 1           4             9    9     2       0.4331961718E-03      10    5    1       0.4484672813E+00      0.9676893419E+00      0.2185017099E+00      0.4331961718E-03
          0                 2           2             9    9     2      -0.3716668480E-04      10    5    1      -0.4526570704E-01      0.1063969379E+00      0.9676893419E+00     -0.3716668480E-04

    ------------------------------------------------
       NWT REQUIRED            2 OUTER ITERATIONS 
       AND A TOTAL OF          6 INNER ITERATIONS.
    ------------------------------------------------
                                                   Max.-Head-Change                        Max.-Flux-Residual
  Residual-Control   Outer-Iter.   Inner-Iter.     Column Row Layer    Max.-Head-Change    Column Row Layer    Max.-Flux-Residual            L2-New               L2-Old           Solver-Max-Delh
          0                 1           3             9    9     2       0.3539135820E-03       9    9    1       0.3466956568E+00      0.6235341683E+00      0.1063969379E+00      0.3539135820E-03
          0                 2           2             9    9     2      -0.3000773793E-04       9    9    1      -0.3481070051E-01      0.7119681697E-01      0.6235341683E+00     -0.3000773793E-04

    ------------------------------------------------
       NWT REQUIRED            2 OUTER ITERATIONS 
       AND A TOTAL OF          5 INNER ITERATIONS.
    ------------------------------------------------

 OUTPUT CONTROL FOR STRESS PERIOD     18   TIME STEP     1
    SAVE BUDGET
 UBDSV1 SAVING "         STORAGE" ON UNIT  70 AT TIME STEP    1, STRESS PERIOD  18
 UBDSV2 SAVING "   CONSTANT HEAD" ON UNIT  70 AT TIME STEP    1, STRESS PERIOD  18
 UBDSV1 SAVING "FLOW RIGHT FACE " ON UNIT  70 AT TIME STEP    1, STRESS PERIOD  18
 UBDSV1 SAVING "FLOW FRONT FACE " ON UNIT  70 AT TIME STEP    1, STRESS PERIOD  18
 UBDSV1 SAVING "FLOW LOWER FACE " ON UNIT  70 AT TIME STEP    1, STRESS PERIOD  18
 UBDSV4 SAVING " HEAD DEP BOUNDS" ON UNIT  70 AT TIME STEP    1, STRESS PERIOD  18
 UBDSV4 SAVING "  STREAM LEAKAGE" ON UNIT  70 AT TIME STEP    1, STRESS PERIOD  18



 UBDSV4 SAVING "             MNW" ON UNIT  70 AT TIME STEP    1, STRESS PERIOD  18
 
 
 
 
 
 
 
 
 UBDSV3 SAVING "FARM  NET  RECH." ON UNIT  70 AT TIME STEP    1, STRESS PERIOD  18
 UBDSV4 SAVING " GHOST-NODE FLUX" ON UNIT  70 AT TIME STEP    1, STRESS PERIOD  18
 UBDSV4 SAVING " GHOST-NODE FLUX" ON UNIT  70 AT TIME STEP    1, STRESS PERIOD  18
 UBDSV4 SAVING " GHOST-NODE FLUX" ON UNIT  70 AT TIME STEP    1, STRESS PERIOD  18
 
 SOLVING FOR HEAD 
                                                   Max.-Head-Change                        Max.-Flux-Residual
  Residual-Control   Outer-Iter.   Inner-Iter.     Column Row Layer    Max.-Head-Change    Column Row Layer    Max.-Flux-Residual            L2-New               L2-Old           Solver-Max-Delh
          0                 1           8            20    1     4      -0.8174220996E+00      12   10    1       0.7106518836E+03      0.2268688149E+04      0.7119681697E-01     -0.8174220996E+00
          0                 2           7            19    3     4       0.1799654551E+00      12   13    1       0.5457789620E+02      0.2264365750E+03      0.2268688149E+04      0.1799654551E+00
          0                 3           6            19    3     3       0.3995413861E-01       2    8    1       0.2795053090E+02      0.5077650120E+02      0.2264365750E+03      0.3995413861E-01
          0                 4           5            19    3     3       0.9417893135E-02       2    8    1       0.9436650461E+01      0.1555120180E+02      0.5077650120E+02      0.9417893135E-02
          0                 5           5            19    3     3       0.2245259023E-02       2    8    1       0.2948879057E+01      0.4721033535E+01      0.1555120180E+02      0.2245259023E-02
          0                 6           4            19    3     3       0.5367099575E-03       2    8    1       0.9067115517E+00      0.1423799521E+01      0.4721033535E+01      0.5367099575E-03
          0                 7           3             2    8     3       0.1349990282E-03       2    8    1       0.2773124744E+00      0.4304234431E+00      0.1423799521E+01      0.1349990282E-03
          0                 8           3             2    8     3       0.4137365316E-04       2    8    1       0.8462646208E-01      0.1323215585E+00      0.4304234431E+00      0.4137365316E-04

    ------------------------------------------------
       NWT REQUIRED            8 OUTER ITERATIONS 
       AND A TOTAL OF         41 INNER ITERATIONS.
    ------------------------------------------------
                                                   Max.-Head-Change                        Max.-Flux-Residual
  Residual-Control   Outer-Iter.   Inner-Iter.     Column Row Layer    Max.-Head-Change    Column Row Layer    Max.-Flux-Residual            L2-New               L2-Old           Solver-Max-Delh
          0                 1           7             9    9     1      -0.2712780393E+00      14   16    1      -0.6502873913E+03      0.9759643066E+03      0.1323215585E+00     -0.2712780393E+00
          0                 2           6            12   12     1      -0.1050062267E+00      12   12    1      -0.2086370830E+03      0.3080117181E+03      0.9759643066E+03     -0.1050062267E+00
          0                 3           5            12   11     1      -0.1338021849E-01      12   11    1      -0.3713481936E+02      0.4415874452E+02      0.3080117181E+03     -0.1338021849E-01
          0                 4           5            12   11     1      -0.1077675122E-01      12   11    1      -0.2914363836E+02      0.2920211144E+02      0.4415874452E+02     -0.1077675122E-01
          0                 5           4            12   11     1      -0.2341688722E-02      12   11    1      -0.6708167722E+01      0.7228731606E+01      0.2920211144E+02     -0.2341688722E-02
          0                 6           4            12   11     1      -0.1037482896E-02      12   11    1      -0.2848243259E+01      0.2914758021E+01      0.7228731606E+01     -0.1037482896E-02
          0                 7           3            12   11     1      -0.2881401401E-03      12   11    1      -0.8126495494E+00      0.8757957220E+00      0.2914758021E+01     -0.2881401401E-03
          0                 8           3            12   11     1      -0.1062075097E-03      12   11    1      -0.2956567866E+00      0.3083943408E+00      0.8757957220E+00     -0.1062075097E-03
          0                 9           2            12   11     1      -0.3329621912E-04      12   11    1      -0.9209816606E-01      0.9975021403E-01      0.3083943408E+00     -0.3329621912E-04

    ------------------------------------------------
       NWT REQUIRED            9 OUTER ITERATIONS 
       AND A TOTAL OF         39 INNER ITERATIONS.
    ------------------------------------------------
                                                   Max.-Head-Change                        Max.-Flux-Residual
  Residual-Control   Outer-Iter.   Inner-Iter.     Column Row Layer    Max.-Head-Change    Column Row Layer    Max.-Flux-Residual            L2-New               L2-Old           Solver-Max-Delh
          0                 1           7            12   10     1      -0.2783493143E+00      12   10    1      -0.6469141431E+03      0.6987252545E+03      0.9975021403E-01     -0.2783493143E+00
          0                 2           6            12   11     1      -0.1096985846E+00      12   11    1      -0.2110875032E+03      0.2313484841E+03      0.6987252545E+03     -0.1096985846E+00
          0                 3           5            12   11     1       0.9412935240E-02      12   11    1       0.2095463065E+02      0.2292562033E+02      0.2313484841E+03      0.9412935240E-02
          0                 4           4            12   11     1       0.4703473331E-03      12   11    1       0.1046787721E+01      0.1151968703E+01      0.2292562033E+02      0.4703473331E-03
          0                 5           2            12   11     1       0.2434266952E-04      12   11    1       0.5271926773E-01      0.7132882678E-01      0.1151968703E+01      0.2434266952E-04

    ------------------------------------------------
       NWT REQUIRED            5 OUTER ITERATIONS 
       AND A TOTAL OF         24 INNER ITERATIONS.
    ------------------------------------------------
                                                   Max.-Head-Change                        Max.-Flux-Residual
  Residual-Control   Outer-Iter.   Inner-Iter.     Column Row Layer    Max.-Head-Change    Column Row Layer    Max.-Flux-Residual            L2-New               L2-Old           Solver-Max-Delh
          0                 1           6             9    9     1       0.5946218164E-01       9    9    1       0.7133876788E+02      0.1387091690E+03      0.7132882678E-01      0.5946218164E-01
          0                 2           5             9    9     1      -0.4930767601E-02       9    9    1      -0.7140445658E+01      0.1429622774E+02      0.1387091690E+03     -0.4930767601E-02
          0                 3           4             9    9     1      -0.2565974428E-03       9    9    1      -0.3166664046E+00      0.6631644818E+00      0.1429622774E+02     -0.2565974428E-03
          0                 4           2             2    8     3      -0.1602716754E-04       2    8    1      -0.3322716756E-01      0.6389074562E-01      0.6631644818E+00     -0.1602716754E-04

    ------------------------------------------------
       NWT REQUIRED            4 OUTER ITERATIONS 
       AND A TOTAL OF         17 INNER ITERATIONS.
    ------------------------------------------------
                                                   Max.-Head-Change                        Max.-Flux-Residual
  Residual-Control   Outer-Iter.   Inner-Iter.     Column Row Layer    Max.-Head-Change    Column Row Layer    Max.-Flux-Residual            L2-New               L2-Old           Solver-Max-Delh
          0                 1           6             6    8     1       0.2288320049E-01       6    8    1       0.2729014414E+02      0.6182126636E+02      0.6389074562E-01      0.2288320049E-01
          0                 2           5             6    8     1      -0.1970471851E-02       6    8    1      -0.2732314332E+01      0.6307343904E+01      0.6182126636E+02     -0.1970471851E-02
          0                 3           3             6    8     1      -0.1003398849E-03       6    8    1      -0.1367679092E+00      0.3242375898E+00      0.6307343904E+01     -0.1003398849E-03
          0                 4           2             2    8     3      -0.8425714859E-05       2    8    1      -0.1668401959E-01      0.3564441702E-01      0.3242375898E+00     -0.8425714859E-05

    ------------------------------------------------
       NWT REQUIRED            4 OUTER ITERATIONS 
       AND A TOTAL OF         16 INNER ITERATIONS.
    ------------------------------------------------
                                                   Max.-Head-Change                        Max.-Flux-Residual
  Residual-Control   Outer-Iter.   Inner-Iter.     Column Row Layer    Max.-Head-Change    Column Row Layer    Max.-Flux-Residual            L2-New               L2-Old           Solver-Max-Delh
          0                 1           5            12   10     1       0.1054745189E-01      12   10    1       0.1571680091E+02      0.3036945462E+02      0.3564441702E-01      0.1054745189E-01
          0                 2           4            12   10     1      -0.9112022740E-03      12   10    1      -0.1573604929E+01      0.3038746942E+01      0.3036945462E+02     -0.9112022740E-03
          0                 3           3            12   10     1      -0.4541825537E-04      12   10    1      -0.7815835543E-01      0.1628009039E+00      0.3038746942E+01     -0.4541825537E-04

    ------------------------------------------------
       NWT REQUIRED            3 OUTER ITERATIONS 
       AND A TOTAL OF         12 INNER ITERATIONS.
    ------------------------------------------------
                                                   Max.-Head-Change                        Max.-Flux-Residual
  Residual-Control   Outer-Iter.   Inner-Iter.     Column Row Layer    Max.-Head-Change    Column Row Layer    Max.-Flux-Residual            L2-New               L2-Old           Solver-Max-Delh
          0                 1           5            12   10     1       0.7142003980E-02      12   10    1       0.1039677140E+02      0.1720634794E+02      0.1628009039E+00      0.7142003980E-02
          0                 2           4            12   10     1      -0.6175699587E-03      12   10    1      -0.1040448500E+01      0.1699815423E+01      0.1720634794E+02     -0.6175699587E-03
          0                 3           3            12   10     1      -0.3056532512E-04      12   10    1      -0.5175941414E-01      0.9750107674E-01      0.1699815423E+01     -0.3056532512E-04

    ------------------------------------------------
       NWT REQUIRED            3 OUTER ITERATIONS 
       AND A TOTAL OF         12 INNER ITERATIONS.
    ------------------------------------------------
                                                   Max.-Head-Change                        Max.-Flux-Residual
  Residual-Control   Outer-Iter.   Inner-Iter.     Column Row Layer    Max.-Head-Change    Column Row Layer    Max.-Flux-Residual            L2-New               L2-Old           Solver-Max-Delh
          0                 1           5            12   10     1       0.3691122431E-02      12   10    1       0.5418973689E+01      0.9187879366E+01      0.9750107674E-01      0.3691122431E-02
          0                 2           4            12   10     1      -0.3183864854E-03      12   10    1      -0.5417956451E+00      0.9023888033E+00      0.9187879366E+01     -0.3183864854E-03
          0                 3           2            12   10     1      -0.1594240034E-04      12   10    1      -0.2728868811E-01      0.5922139434E-01      0.9023888033E+00     -0.1594240034E-04

    ------------------------------------------------
       NWT REQUIRED            3 OUTER ITERATIONS 
       AND A TOTAL OF         11 INNER ITERATIONS.
    ------------------------------------------------
                                                   Max.-Head-Change                        Max.-Flux-Residual
  Residual-Control   Outer-Iter.   Inner-Iter.     Column Row Layer    Max.-Head-Change    Column Row Layer    Max.-Flux-Residual            L2-New               L2-Old           Solver-Max-Delh
          0                 1           4            12   10     1       0.1521584505E-02      12   10    1       0.2329204521E+01      0.4202851323E+01      0.5922139434E-01      0.1521584505E-02
          0                 2           3            12   10     1      -0.1316663777E-03      12   10    1      -0.2328981970E+00      0.4163487228E+00      0.4202851323E+01     -0.1316663777E-03
          0                 3           2            19   21     1      -0.7507200224E-05      18   15    1       0.2104070422E-01      0.4034301366E-01      0.4163487228E+00     -0.7507200224E-05

    ------------------------------------------------
       NWT REQUIRED            3 OUTER ITERATIONS 
       AND A TOTAL OF          9 INNER ITERATIONS.
    ------------------------------------------------
                                                   Max.-Head-Change                        Max.-Flux-Residual
  Residual-Control   Outer-Iter.   Inner-Iter.     Column Row Layer    Max.-Head-Change    Column Row Layer    Max.-Flux-Residual            L2-New               L2-Old           Solver-Max-Delh
          0                 1           4            11   11     1       0.6414747151E-03      11   11    1       0.9860152444E+00      0.1787939622E+01      0.4034301366E-01      0.6414747151E-03
          0                 2           3            11   11     1      -0.5619082576E-04      11   11    1      -0.9851830930E-01      0.1905172972E+00      0.1787939622E+01     -0.5619082576E-04

    ------------------------------------------------
       NWT REQUIRED            2 OUTER ITERATIONS 
       AND A TOTAL OF          7 INNER ITERATIONS.
    ------------------------------------------------
                                                   Max.-Head-Change                        Max.-Flux-Residual
  Residual-Control   Outer-Iter.   Inner-Iter.     Column Row Layer    Max.-Head-Change    Column Row Layer    Max.-Flux-Residual            L2-New               L2-Old           Solver-Max-Delh
          0                 1           3             9    9     2       0.4218232481E-03      11   11    1       0.5751736901E+00      0.9359922499E+00      0.1905172972E+00      0.4218232481E-03
          0                 2           2             9    9     2      -0.3636660472E-04      11   11    1      -0.5750406504E-01      0.1122652048E+00      0.9359922499E+00     -0.3636660472E-04

    ------------------------------------------------
       NWT REQUIRED            2 OUTER ITERATIONS 
       AND A TOTAL OF          5 INNER ITERATIONS.
    ------------------------------------------------
                                                   Max.-Head-Change                        Max.-Flux-Residual
  Residual-Control   Outer-Iter.   Inner-Iter.     Column Row Layer    Max.-Head-Change    Column Row Layer    Max.-Flux-Residual            L2-New               L2-Old           Solver-Max-Delh
          0                 1           3             9    9     2       0.2994180478E-03       9    9    1       0.3441876294E+00      0.5746960551E+00      0.1122652048E+00      0.2994180478E-03
          0                 2           2             9    9     2      -0.2551528964E-04       9    9    1      -0.3498938837E-01      0.6956998637E-01      0.5746960551E+00     -0.2551528964E-04

    ------------------------------------------------
       NWT REQUIRED            2 OUTER ITERATIONS 
       AND A TOTAL OF          5 INNER ITERATIONS.
    ------------------------------------------------

 OUTPUT CONTROL FOR STRESS PERIOD     18   TIME STEP     2
    PRINT BUDGET
    SAVE HEAD FOR ALL LAYERS
    SAVE BUDGET
 UBDSV1 SAVING "         STORAGE" ON UNIT  70 AT TIME STEP    2, STRESS PERIOD  18
 UBDSV2 SAVING "   CONSTANT HEAD" ON UNIT  70 AT TIME STEP    2, STRESS PERIOD  18
 UBDSV1 SAVING "FLOW RIGHT FACE " ON UNIT  70 AT TIME STEP    2, STRESS PERIOD  18
 UBDSV1 SAVING "FLOW FRONT FACE " ON UNIT  70 AT TIME STEP    2, STRESS PERIOD  18
 UBDSV1 SAVING "FLOW LOWER FACE " ON UNIT  70 AT TIME STEP    2, STRESS PERIOD  18
 UBDSV4 SAVING " HEAD DEP BOUNDS" ON UNIT  70 AT TIME STEP    2, STRESS PERIOD  18
 UBDSV4 SAVING "  STREAM LEAKAGE" ON UNIT  70 AT TIME STEP    2, STRESS PERIOD  18



 UBDSV4 SAVING "             MNW" ON UNIT  70 AT TIME STEP    2, STRESS PERIOD  18
 
 
 
 
 
 
 
 
 UBDSV3 SAVING "FARM  NET  RECH." ON UNIT  70 AT TIME STEP    2, STRESS PERIOD  18
 UBDSV4 SAVING " GHOST-NODE FLUX" ON UNIT  70 AT TIME STEP    2, STRESS PERIOD  18
 UBDSV4 SAVING " GHOST-NODE FLUX" ON UNIT  70 AT TIME STEP    2, STRESS PERIOD  18
 UBDSV4 SAVING " GHOST-NODE FLUX" ON UNIT  70 AT TIME STEP    2, STRESS PERIOD  18

 HEAD WILL BE SAVED ON UNIT   22 AT END OF TIME STEP     2, STRESS PERIOD     18
1
  VOLUMETRIC BUDGET FOR ENTIRE MODEL AT END OF TIME STEP    2 IN STRESS PERIOD     18
  ------------------------------------------------------------------------------

     CUMULATIVE VOLUMES      L**3       RATES FOR THIS TIME STEP      L**3/T
     ------------------                 ------------------------

           IN:                                      IN:
           ---                                      ---
             STORAGE =    15637128.0000               STORAGE =       35209.3867
       CONSTANT HEAD =           0.0000         CONSTANT HEAD =           0.0000
     HEAD DEP BOUNDS =     3966557.5000       HEAD DEP BOUNDS =        8187.7051
      STREAM LEAKAGE =     9227664.0000        STREAM LEAKAGE =       14081.0781
                 MNW =       36021.4414                   MNW =           0.0000
          FARM WELLS =           0.0000            FARM WELLS =           0.0000
    FARM  NET  RECH. =    10608065.0000      FARM  NET  RECH. =       12463.3887
     GHOST-NODE FLUX =     3299808.2500       GHOST-NODE FLUX =        6740.3350

            TOTAL IN =    42775244.0000              TOTAL IN =       76681.8984

          OUT:                                     OUT:
          ----                                     ----
             STORAGE =     8040619.5000               STORAGE =           0.0000
       CONSTANT HEAD =           0.0000         CONSTANT HEAD =           0.0000
     HEAD DEP BOUNDS =     9342678.0000       HEAD DEP BOUNDS =       16103.9414
      STREAM LEAKAGE =      697604.0000        STREAM LEAKAGE =          79.7150
                 MNW =     5036705.5000                   MNW =       26446.6797
          FARM WELLS =     5467695.0000            FARM WELLS =       20036.0293
    FARM  NET  RECH. =     2089634.2500      FARM  NET  RECH. =        4300.8066
     GHOST-NODE FLUX =    12100307.0000       GHOST-NODE FLUX =        9714.6768

           TOTAL OUT =    42775244.0000             TOTAL OUT =       76681.8516

            IN - OUT =           0.0000              IN - OUT =       4.6875E-02

 PERCENT DISCREPANCY =           0.00     PERCENT DISCREPANCY =           0.00






          TIME SUMMARY AT END OF TIME STEP     2 IN STRESS PERIOD     18
                    SECONDS     MINUTES      HOURS       DAYS        YEARS
                    -----------------------------------------------------------
   TIME STEP LENGTH 1.31414E+06  21902.      365.04      15.210     4.16427E-02
 STRESS PERIOD TIME 2.62829E+06  43805.      730.08      30.420     8.32854E-02
         TOTAL TIME 4.73092E+07 7.88486E+05  13141.      547.56      1.4991    
1
1
                            STRESS PERIOD NO.     19, LENGTH =   30.42000    
                            -----------------------------------------------

                              NUMBER OF TIME STEPS =     2

                               MULTIPLIER FOR DELT =     1.000

                            INITIAL TIME STEP SIZE =   15.21000    

 REUSING NON-PARAMETER GHB CELLS FROM LAST STRESS PERIOD

     92 GHB CELLS

 REUSING STREAM SEGMENT DATA FROM LAST STRESS PERIOD

 REUSING MNW7  FROM LAST STRESS PERIOD

 Parameter:  WELLS1
 WELL NO. LAYER    ROW    COL  F-WELL ID    FARM ID         QMAX         QMAXRESET       
 ----------------------------------------------------------------------------------------
       1      1      5      6          1          1      5.0000E+03              0
       2      1      8      7          2          1      5.0000E+03              0
       3      1      8      9          3          1      5.0000E+03              0
       4      1      5      9          4          2      3.0000E+03              0
       5      1      6     10          5          2      2.0000E+03              0
       6      1      7     11          6          2      1.0000E+03              0
       7      1     18      3          7          3      2.0000E+03              0
       8      1     21      3          8          3      4.0000E+03              0
       9      1     18     19          9          4      3.0000E+03              0
      10      1     21     19         10          4      5.0000E+03              0
      11      0      6      2        -11          5      5.0000E+03              1
      12      0      8      2        -12          5      5.0000E+03              1
      13      0     10      2        -13          5      5.0000E+03              1
      14      0      3     19        -14          6      1.0000E+04              1
      15      0      6     17        -15          6      6.0000E+03              1

 NUMBER OF ACTIVE FARM WELLS:       15

 THE SINGLE LAYER FMP- OR MNW- WELL IN ROW      8 AND COLUMN      7 IS LOCATED IN AN INACTIVE CELL (IBOUND=0) AND HAS BEEN EXCLUDED FROM THE TOTAL MAXIMUM CAPACITY PER FARM

 THE SINGLE LAYER FMP- OR MNW- WELL IN ROW      8 AND COLUMN      9 IS LOCATED IN AN INACTIVE CELL (IBOUND=0) AND HAS BEEN EXCLUDED FROM THE TOTAL MAXIMUM CAPACITY PER FARM

 THE SINGLE LAYER FMP- OR MNW- WELL IN ROW      6 AND COLUMN     10 IS LOCATED IN AN INACTIVE CELL (IBOUND=0) AND HAS BEEN EXCLUDED FROM THE TOTAL MAXIMUM CAPACITY PER FARM

 THE SINGLE LAYER FMP- OR MNW- WELL IN ROW      7 AND COLUMN     11 IS LOCATED IN AN INACTIVE CELL (IBOUND=0) AND HAS BEEN EXCLUDED FROM THE TOTAL MAXIMUM CAPACITY PER FARM

 FARM-ID  NUMBER OF WELLS PER FARM  TOTAL MAX.CAPACITY PER FARM
       1                         1                    5000.0000
       2                         1                    3000.0000
       3                         2                    6000.0000
       4                         2                    8000.0000
       5                         3                   15000.0000
       6                         2                   16000.0000
       7                         0                       0.0000
       8                         0                       0.0000

 READING LIST ON UNIT   20 WITH FILE NAME: C:\MF_OWHM_Release_Package\MF_OWHM_v1_0\examples\test-run-owhm-lgr\fmp-lgr-nwt\DATA_FMP\OFE.in
 LIST SCALING FACTOR=  1.0000    
 (THE SCALE FACTOR WAS APPLIED TO FIELDS   2 -   7)

 Reading list on unit   30

 Reading list on unit   40

  REF. EVAPOTRANSPIRATION =  6.920000E-03

 READING LIST ON UNIT   50 WITH FILE NAME: C:\MF_OWHM_Release_Package\MF_OWHM_v1_0\examples\test-run-owhm-lgr\fmp-lgr-nwt\DATA_FMP\FTE.in

Transpiratory and Evaporative Fractions of Crop Consumptive Use
    % Transpiration % Evap. for Precip. % Evap. for Irrig.
    1          0.000          1.000          0.500
    2          0.950          0.050          0.050
    3          0.000          1.000          1.000
    4          0.125          0.875          0.875
    5          0.927          0.073          0.000
    6          0.900          0.100          0.000

 READING LIST ON UNIT   60 WITH FILE NAME: C:\MF_OWHM_Release_Package\MF_OWHM_v1_0\examples\test-run-owhm-lgr\fmp-lgr-nwt\DATA_FMP\INEFFSW.in

FRACTIONS OF IN-EFFICIENT LOSSES TO SW-RUNOFF FROM 
     PRECIPITATION:  IRRIGATION:
    1          0.500          0.600
    2          0.400          0.300
    3          0.600          0.500
    4          0.700          0.600
    5          0.500          0.000
    6          0.300          0.000

       PRECIPITATION FLUX =  3.000000E-05

 OPENING FILE WITH FILENAME: ./DATA_FMP/NRDV.in
 AND UNIT NUMBER: -165
 READING SCALE FACTOR LIST ON UNIT   80 ASSOCIATED WITH FILE: C:\MF_OWHM_Release_Package\MF_OWHM_v1_0\examples\test-run-owhm-lgr\fmp-lgr-nwt\DATA_FMP\NRDV.in
 FIELD     SCALE FACTOR
     1       1.0000    
     2       6.0000    
     3       1.0000    
     4       1.0000    

UNRANKED LIST OF NON-ROUTED DELIVERIES TO FARMS [L3]:
TYPE:             1

FARM-ID  VOLUME:
      1   9.000E+04
      2   9.000E+04
      3   1.200E+05
      4   6.000E+04
      5   6.000E+04
      6   1.200E+05
      7   0.000E+00
      8   0.000E+00

FARM-ID  PRIORITY RANK OF NRD-TYPE:
      1           1
      2           1
      3           1
      4           1
      5           1
      6           1
      7           1
      8           1

FARM-ID  USE-FLAG:
         0 = SUFFICIENT USE
         1 = ABSOLUTE USE (RECHARGE SURPLUS BACK INTO CANAL)
         2 = ABSOLUTE USE (INJECT SURPLUS INTO FARM-WELLS)
      1           0
      2           0
      3           0
      4           0
      5           0
      6           0
      7           0
      8           0

LIST OF NON-ROUTED DELIVERIES IN RANKED SEQUENCE [L3/T]:

FARM-ID  RATE:
      1   2.959E+03
      2   2.959E+03
      3   3.945E+03
      4   1.972E+03
      5   1.972E+03
      6   3.945E+03
      7   0.000E+00
      8   0.000E+00

FARM-ID  USE-FLAG:
         0 = SUFFICIENT USE
         1 = ABSOLUTE USE (RECHARGE SURPLUS BACK INTO CANAL)
         2 = ABSOLUTE USE (INJECT SURPLUS INTO FARM-WELLS)
      1           0
      2           0
      3           0
      4           0
      5           0
      6           0
      7           0
      8           0

SURFACE-WATER FARM ALLOTMENT HEIGHT [L]:   0.050
 
 SOLVING FOR HEAD 
                                                   Max.-Head-Change                        Max.-Flux-Residual
  Residual-Control   Outer-Iter.   Inner-Iter.     Column Row Layer    Max.-Head-Change    Column Row Layer    Max.-Flux-Residual            L2-New               L2-Old           Solver-Max-Delh
          0                 1           9             6    5     1       0.1914974759E+01       6    5    1       0.4900819996E+04      0.9606626067E+04      0.6956998637E-01      0.1914974759E+01
          0                 2           8             6    5     1      -0.2005189769E+01       6    5    1      -0.5517054314E+04      0.8792339168E+04      0.9606626067E+04     -0.2005189769E+01
          0                 3           8             9    5     1      -0.3585182801E+01       9    5    1      -0.7035101565E+04      0.7654543493E+04      0.8792339168E+04     -0.3585182801E+01
          0                 4           8             9    5     1       0.1618047195E+01       9    5    1       0.3536548632E+04      0.3584006809E+04      0.7654543493E+04      0.1618047195E+01
          0                 5           7             9    5     1       0.2784683631E+00       9    5    1       0.6086782686E+03      0.6329560188E+03      0.3584006809E+04      0.2784683631E+00
          0                 6           6             9    5     1       0.4917647377E-01       9    5    1       0.1074609511E+03      0.1216701700E+03      0.6329560188E+03      0.4917647377E-01
          0                 7           5             9    5     1       0.8725249376E-02       9    5    1       0.1905338430E+02      0.2567512817E+02      0.1216701700E+03      0.8725249376E-02
          0                 8           5             9    5     1       0.1550082563E-02       9    5    1       0.3380820857E+01      0.6277858201E+01      0.2567512817E+02      0.1550082563E-02
          0                 9           4             9    5     1       0.2755664353E-03      11    4    1       0.7776366151E+00      0.1777850811E+01      0.6277858201E+01      0.2755664353E-03
          0                10           3            12   11     1      -0.8215498551E-04      12   11    1      -0.2743632905E+00      0.5594633410E+00      0.1777850811E+01     -0.8215498551E-04

    ------------------------------------------------
       NWT REQUIRED           10 OUTER ITERATIONS 
       AND A TOTAL OF         63 INNER ITERATIONS.
    ------------------------------------------------
                                                   Max.-Head-Change                        Max.-Flux-Residual
  Residual-Control   Outer-Iter.   Inner-Iter.     Column Row Layer    Max.-Head-Change    Column Row Layer    Max.-Flux-Residual            L2-New               L2-Old           Solver-Max-Delh
          0                 1           8             9   10     1      -0.6767594220E+00       8   10    1      -0.6537954755E+03      0.1512846567E+04      0.5594633410E+00     -0.6767594220E+00
          0                 2           6             9   10     1       0.5720165673E-01       8   10    1       0.6280240733E+02      0.1641476706E+03      0.1512846567E+04      0.5720165673E-01
          0                 3           5            19    3     3       0.4298958222E-02      12   16    1       0.5347909345E+01      0.1040665657E+02      0.1641476706E+03      0.4298958222E-02
          0                 4           4            19    3     3       0.1006451502E-02      19   21    1       0.4581030219E+00      0.8829031696E+00      0.1040665657E+02      0.1006451502E-02
          0                 5           3            19    3     3       0.2392554317E-03      19    3    2       0.7661350812E-01      0.1387467071E+00      0.8829031696E+00      0.2392554317E-03
          0                 6           2            19    3     3       0.5592211042E-04      19    3    2       0.1830201427E-01      0.3847964224E-01      0.1387467071E+00      0.5592211042E-04

    ------------------------------------------------
       NWT REQUIRED            6 OUTER ITERATIONS 
       AND A TOTAL OF         28 INNER ITERATIONS.
    ------------------------------------------------
                                                   Max.-Head-Change                        Max.-Flux-Residual
  Residual-Control   Outer-Iter.   Inner-Iter.     Column Row Layer    Max.-Head-Change    Column Row Layer    Max.-Flux-Residual            L2-New               L2-Old           Solver-Max-Delh
          0                 1           7             9    9     1       0.3215471044E+00       9    9    1       0.2954118590E+03      0.4066479036E+03      0.3847964224E-01      0.3215471044E+00
          0                 2           6             9    9     1      -0.2799105072E-01       9    9    1      -0.3001734799E+02      0.4110286676E+02      0.4066479036E+03     -0.2799105072E-01
          0                 3           4             9    9     1      -0.1402998843E-02       9    9    1      -0.1504596133E+01      0.2104266385E+01      0.4110286676E+02     -0.1402998843E-02
          0                 4           3            19    3     3       0.9485756595E-04       2    8    1      -0.9310360497E-01      0.1780252471E+00      0.2104266385E+01      0.9485756595E-04

    ------------------------------------------------
       NWT REQUIRED            4 OUTER ITERATIONS 
       AND A TOTAL OF         20 INNER ITERATIONS.
    ------------------------------------------------
                                                   Max.-Head-Change                        Max.-Flux-Residual
  Residual-Control   Outer-Iter.   Inner-Iter.     Column Row Layer    Max.-Head-Change    Column Row Layer    Max.-Flux-Residual            L2-New               L2-Old           Solver-Max-Delh
          0                 1           7             9    9     1       0.1667191094E+00       9    9    1       0.1417570604E+03      0.2085574908E+03      0.1780252471E+00      0.1667191094E+00
          0                 2           5             9    9     1      -0.1445889710E-01       9    9    1      -0.1430083499E+02      0.2100905600E+02      0.2085574908E+03     -0.1445889710E-01
          0                 3           4             9    9     1      -0.7241892510E-03       9    9    1      -0.7160639879E+00      0.1114886872E+01      0.2100905600E+02     -0.7241892510E-03
          0                 4           3             9    9     1      -0.3648982382E-04       2    8    1      -0.5063466099E-01      0.9730436102E-01      0.1114886872E+01     -0.3648982382E-04

    ------------------------------------------------
       NWT REQUIRED            4 OUTER ITERATIONS 
       AND A TOTAL OF         19 INNER ITERATIONS.
    ------------------------------------------------
                                                   Max.-Head-Change                        Max.-Flux-Residual
  Residual-Control   Outer-Iter.   Inner-Iter.     Column Row Layer    Max.-Head-Change    Column Row Layer    Max.-Flux-Residual            L2-New               L2-Old           Solver-Max-Delh
          0                 1           6             9    9     1       0.4384259929E-01       7    9    1       0.3833441469E+02      0.7686076925E+02      0.9730436102E-01      0.4384259929E-01
          0                 2           5             9    9     1      -0.3789863929E-02       7    9    1      -0.3839501729E+01      0.7802638908E+01      0.7686076925E+02     -0.3789863929E-02
          0                 3           3             9    9     1      -0.1897383458E-03      19   21    1      -0.2153017564E+00      0.4669907705E+00      0.7802638908E+01     -0.1897383458E-03
          0                 4           2             2    8     3      -0.1176140586E-04       2    8    1      -0.2391062060E-01      0.4790912856E-01      0.4669907705E+00     -0.1176140586E-04

    ------------------------------------------------
       NWT REQUIRED            4 OUTER ITERATIONS 
       AND A TOTAL OF         16 INNER ITERATIONS.
    ------------------------------------------------
                                                   Max.-Head-Change                        Max.-Flux-Residual
  Residual-Control   Outer-Iter.   Inner-Iter.     Column Row Layer    Max.-Head-Change    Column Row Layer    Max.-Flux-Residual            L2-New               L2-Old           Solver-Max-Delh
          0                 1           6             6    8     1       0.1352078497E-01       9    9    1      -0.1796348257E+02      0.3664477717E+02      0.4790912856E-01      0.1352078497E-01
          0                 2           4             6    8     1      -0.1166934999E-02       9    9    1       0.1796621183E+01      0.3784269110E+01      0.3664477717E+02     -0.1166934999E-02
          0                 3           3            19   21     1      -0.7504449979E-04      19   21    1      -0.1708656533E+00      0.2594419230E+00      0.3784269110E+01     -0.7504449979E-04

    ------------------------------------------------
       NWT REQUIRED            3 OUTER ITERATIONS 
       AND A TOTAL OF         13 INNER ITERATIONS.
    ------------------------------------------------
                                                   Max.-Head-Change                        Max.-Flux-Residual
  Residual-Control   Outer-Iter.   Inner-Iter.     Column Row Layer    Max.-Head-Change    Column Row Layer    Max.-Flux-Residual            L2-New               L2-Old           Solver-Max-Delh
          0                 1           5             9    9     2      -0.1679794610E-01       9    9    1      -0.2139325700E+02      0.2593936029E+02      0.2594419230E+00     -0.1679794610E-01
          0                 2           4             9    9     2       0.1450996071E-02       9    9    1       0.2138053907E+01      0.2664806993E+01      0.2593936029E+02      0.1450996071E-02
          0                 3           3             9    9     2       0.7244893352E-04       9    9    1       0.1068397552E+00      0.1504588800E+00      0.2664806993E+01      0.7244893352E-04

    ------------------------------------------------
       NWT REQUIRED            3 OUTER ITERATIONS 
       AND A TOTAL OF         12 INNER ITERATIONS.
    ------------------------------------------------
                                                   Max.-Head-Change                        Max.-Flux-Residual
  Residual-Control   Outer-Iter.   Inner-Iter.     Column Row Layer    Max.-Head-Change    Column Row Layer    Max.-Flux-Residual            L2-New               L2-Old           Solver-Max-Delh
          0                 1           5             9    9     1      -0.9926786067E-02       9    9    1      -0.1198302472E+02      0.1366175899E+02      0.1504588800E+00     -0.9926786067E-02
          0                 2           4             9    9     1       0.8570478676E-03       9    9    1       0.1197795980E+01      0.1414120082E+01      0.1366175899E+02      0.8570478676E-03
          0                 3           2             9    9     1       0.4313643016E-04      19   21    1      -0.7040471735E-01      0.1024463603E+00      0.1414120082E+01      0.4313643016E-04

    ------------------------------------------------
       NWT REQUIRED            3 OUTER ITERATIONS 
       AND A TOTAL OF         11 INNER ITERATIONS.
    ------------------------------------------------
                                                   Max.-Head-Change                        Max.-Flux-Residual
  Residual-Control   Outer-Iter.   Inner-Iter.     Column Row Layer    Max.-Head-Change    Column Row Layer    Max.-Flux-Residual            L2-New               L2-Old           Solver-Max-Delh
          0                 1           4             9    9     1      -0.3097781366E-02       9    9    1      -0.3832849423E+01      0.4812198469E+01      0.1024463603E+00     -0.3097781366E-02
          0                 2           3             9    9     1       0.2676177584E-03       9    9    1       0.3832614607E+00      0.5202647091E+00      0.4812198469E+01      0.2676177584E-03
          0                 3           2             9    9     1       0.1315265099E-04       9    9    1       0.1915679971E-01      0.3940374204E-01      0.5202647091E+00      0.1315265099E-04

    ------------------------------------------------
       NWT REQUIRED            3 OUTER ITERATIONS 
       AND A TOTAL OF          9 INNER ITERATIONS.
    ------------------------------------------------
                                                   Max.-Head-Change                        Max.-Flux-Residual
  Residual-Control   Outer-Iter.   Inner-Iter.     Column Row Layer    Max.-Head-Change    Column Row Layer    Max.-Flux-Residual            L2-New               L2-Old           Solver-Max-Delh
          0                 1           4             9    9     3       0.1078205827E-02       9   10    1       0.8057484765E+00      0.1705310451E+01      0.3940374204E-01      0.1078205827E-02
          0                 2           3             9    9     3      -0.9299355380E-04      19   21    1       0.9769018675E-01      0.1991953342E+00      0.1705310451E+01     -0.9299355380E-04

    ------------------------------------------------
       NWT REQUIRED            2 OUTER ITERATIONS 
       AND A TOTAL OF          7 INNER ITERATIONS.
    ------------------------------------------------
                                                   Max.-Head-Change                        Max.-Flux-Residual
  Residual-Control   Outer-Iter.   Inner-Iter.     Column Row Layer    Max.-Head-Change    Column Row Layer    Max.-Flux-Residual            L2-New               L2-Old           Solver-Max-Delh
          0                 1           4             9    9     2       0.1194944674E-02       9    9    1       0.9429993283E+00      0.1459226132E+01      0.1991953342E+00      0.1194944674E-02
          0                 2           3             9    9     2      -0.1032117739E-03       9    9    1      -0.9392310079E-01      0.1542584941E+00      0.1459226132E+01     -0.1032117739E-03
          0                 3           1            20    9     1      -0.5595513246E-05      20    9    1      -0.1361529238E-01      0.2180048638E-01      0.1542584941E+00     -0.5595513246E-05

    ------------------------------------------------
       NWT REQUIRED            3 OUTER ITERATIONS 
       AND A TOTAL OF          8 INNER ITERATIONS.
    ------------------------------------------------

 OUTPUT CONTROL FOR STRESS PERIOD     19   TIME STEP     1
    SAVE BUDGET
 UBDSV1 SAVING "         STORAGE" ON UNIT  70 AT TIME STEP    1, STRESS PERIOD  19
 UBDSV2 SAVING "   CONSTANT HEAD" ON UNIT  70 AT TIME STEP    1, STRESS PERIOD  19
 UBDSV1 SAVING "FLOW RIGHT FACE " ON UNIT  70 AT TIME STEP    1, STRESS PERIOD  19
 UBDSV1 SAVING "FLOW FRONT FACE " ON UNIT  70 AT TIME STEP    1, STRESS PERIOD  19
 UBDSV1 SAVING "FLOW LOWER FACE " ON UNIT  70 AT TIME STEP    1, STRESS PERIOD  19
 UBDSV4 SAVING " HEAD DEP BOUNDS" ON UNIT  70 AT TIME STEP    1, STRESS PERIOD  19
 UBDSV4 SAVING "  STREAM LEAKAGE" ON UNIT  70 AT TIME STEP    1, STRESS PERIOD  19



 UBDSV4 SAVING "             MNW" ON UNIT  70 AT TIME STEP    1, STRESS PERIOD  19
 
 
 
 
 
 
 
 
 UBDSV3 SAVING "FARM  NET  RECH." ON UNIT  70 AT TIME STEP    1, STRESS PERIOD  19
 UBDSV4 SAVING " GHOST-NODE FLUX" ON UNIT  70 AT TIME STEP    1, STRESS PERIOD  19
 UBDSV4 SAVING " GHOST-NODE FLUX" ON UNIT  70 AT TIME STEP    1, STRESS PERIOD  19
 UBDSV4 SAVING " GHOST-NODE FLUX" ON UNIT  70 AT TIME STEP    1, STRESS PERIOD  19
 
 SOLVING FOR HEAD 
                                                   Max.-Head-Change                        Max.-Flux-Residual
  Residual-Control   Outer-Iter.   Inner-Iter.     Column Row Layer    Max.-Head-Change    Column Row Layer    Max.-Flux-Residual            L2-New               L2-Old           Solver-Max-Delh
          0                 1           8            20    1     4      -0.4553097153E+00       9   10    1       0.6618742583E+03      0.2017386046E+04      0.2180048638E-01     -0.4553097153E+00
          0                 2           7            19    3     3       0.1106343526E+00      12   16    1      -0.2943495390E+03      0.5486953513E+03      0.2017386046E+04      0.1106343526E+00
          0                 3           6            12   10     1      -0.4497246581E-01      12   10    1      -0.1535351170E+03      0.1760911849E+03      0.5486953513E+03     -0.4497246581E-01
          0                 4           5            12   11     1      -0.1425680174E-01      12   11    1      -0.3341433535E+02      0.4609748725E+02      0.1760911849E+03     -0.1425680174E-01
          0                 5           5            12   11     1      -0.3566555592E-02      13   16    1      -0.8376957987E+01      0.1177266412E+02      0.4609748725E+02     -0.3566555592E-02
          0                 6           4            13   16     1      -0.7072369235E-03      13   16    1      -0.2288302463E+01      0.2897039088E+01      0.1177266412E+02     -0.7072369235E-03
          0                 7           3            13   16     1      -0.1803081028E-03      13   16    1      -0.5821085518E+00      0.7273967162E+00      0.2897039088E+01     -0.1803081028E-03
          0                 8           3            13   16     1      -0.4411274799E-04      13   16    1      -0.1427164925E+00      0.1812738629E+00      0.7273967162E+00     -0.4411274799E-04

    ------------------------------------------------
       NWT REQUIRED            8 OUTER ITERATIONS 
       AND A TOTAL OF         41 INNER ITERATIONS.
    ------------------------------------------------
                                                   Max.-Head-Change                        Max.-Flux-Residual
  Residual-Control   Outer-Iter.   Inner-Iter.     Column Row Layer    Max.-Head-Change    Column Row Layer    Max.-Flux-Residual            L2-New               L2-Old           Solver-Max-Delh
          0                 1           8             9   10     1      -0.8835073929E+00       8   10    1      -0.8140608836E+03      0.1643826800E+04      0.1812738629E+00     -0.8835073929E+00
          0                 2           7             9    9     1       0.7433447818E-01       8   10    1       0.7738792890E+02      0.1699275640E+03      0.1643826800E+04      0.7433447818E-01
          0                 3           5            19   21     1       0.4494280942E-02      19   21    1       0.1022544539E+02      0.1315415380E+02      0.1699275640E+03      0.4494280942E-02
          0                 4           4            19    3     3       0.6086554002E-03      19   21    1       0.7378307347E+00      0.9553574671E+00      0.1315415380E+02      0.6086554002E-03
          0                 5           3            19    3     3       0.1447413052E-03       2    8    1       0.6938214472E-01      0.1340095130E+00      0.9553574671E+00      0.1447413052E-03
          0                 6           2            19    3     3       0.3397612563E-04       2    8    1       0.2135714155E-01      0.3765104647E-01      0.1340095130E+00      0.3397612563E-04

    ------------------------------------------------
       NWT REQUIRED            6 OUTER ITERATIONS 
       AND A TOTAL OF         29 INNER ITERATIONS.
    ------------------------------------------------
                                                   Max.-Head-Change                        Max.-Flux-Residual
  Residual-Control   Outer-Iter.   Inner-Iter.     Column Row Layer    Max.-Head-Change    Column Row Layer    Max.-Flux-Residual            L2-New               L2-Old           Solver-Max-Delh
          0                 1           7             9    9     1       0.2975442326E+00       9    9    1       0.2763222513E+03      0.3568451248E+03      0.3765104647E-01      0.2975442326E+00
          0                 2           6             9    9     1      -0.2588881051E-01       9    9    1      -0.2804802539E+02      0.3605705481E+02      0.3568451248E+03     -0.2588881051E-01
          0                 3           4             9    9     1      -0.1296481115E-02       9    9    1      -0.1404712265E+01      0.1834831677E+01      0.3605705481E+02     -0.1296481115E-02
          0                 4           3             9    9     1      -0.6574859160E-04       2    8    1      -0.7304661768E-01      0.1447152730E+00      0.1834831677E+01     -0.6574859160E-04

    ------------------------------------------------
       NWT REQUIRED            4 OUTER ITERATIONS 
       AND A TOTAL OF         20 INNER ITERATIONS.
    ------------------------------------------------
                                                   Max.-Head-Change                        Max.-Flux-Residual
  Residual-Control   Outer-Iter.   Inner-Iter.     Column Row Layer    Max.-Head-Change    Column Row Layer    Max.-Flux-Residual            L2-New               L2-Old           Solver-Max-Delh
          0                 1           7             9    9     1       0.1729343250E+00       9    9    1       0.1510557978E+03      0.1998310311E+03      0.1447152730E+00      0.1729343250E+00
          0                 2           5             9    9     1      -0.1500164698E-01       9    9    1      -0.1524540736E+02      0.2018382515E+02      0.1998310311E+03     -0.1500164698E-01
          0                 3           4             9    9     1      -0.7510118092E-03       9    9    1      -0.7631854012E+00      0.1107085167E+01      0.2018382515E+02     -0.7510118092E-03
          0                 4           3             9    9     1      -0.3796346486E-04       2    8    1      -0.4076867586E-01      0.8672427762E-01      0.1107085167E+01     -0.3796346486E-04

    ------------------------------------------------
       NWT REQUIRED            4 OUTER ITERATIONS 
       AND A TOTAL OF         19 INNER ITERATIONS.
    ------------------------------------------------
                                                   Max.-Head-Change                        Max.-Flux-Residual
  Residual-Control   Outer-Iter.   Inner-Iter.     Column Row Layer    Max.-Head-Change    Column Row Layer    Max.-Flux-Residual            L2-New               L2-Old           Solver-Max-Delh
          0                 1           6             9    9     1       0.5447729512E-01       9    9    1       0.3941355930E+02      0.7507121705E+02      0.8672427762E-01      0.5447729512E-01
          0                 2           5             9    9     1      -0.4710763008E-02       9    9    1      -0.3952620015E+01      0.7682155295E+01      0.7507121705E+02     -0.4710763008E-02
          0                 3           3             9    9     1      -0.2358365294E-03      19   21    1      -0.2746584902E+00      0.4923757248E+00      0.7682155295E+01     -0.2358365294E-03
          0                 4           2             9    9     1      -0.1180082863E-04       2    8    1      -0.1971178118E-01      0.4522149554E-01      0.4923757248E+00     -0.1180082863E-04

    ------------------------------------------------
       NWT REQUIRED            4 OUTER ITERATIONS 
       AND A TOTAL OF         16 INNER ITERATIONS.
    ------------------------------------------------
                                                   Max.-Head-Change                        Max.-Flux-Residual
  Residual-Control   Outer-Iter.   Inner-Iter.     Column Row Layer    Max.-Head-Change    Column Row Layer    Max.-Flux-Residual            L2-New               L2-Old           Solver-Max-Delh
          0                 1           6             6    8     1       0.1173401827E-01       6    8    1       0.1439591740E+02      0.3106002872E+02      0.4522149554E-01      0.1173401827E-01
          0                 2           4             6    8     1      -0.1012867301E-02       6    8    1      -0.1440679358E+01      0.3255368322E+01      0.3106002872E+02     -0.1012867301E-02
          0                 3           3            19   21     1      -0.7610787840E-04      19   21    1      -0.1721280550E+00      0.2424823509E+00      0.3255368322E+01     -0.7610787840E-04

    ------------------------------------------------
       NWT REQUIRED            3 OUTER ITERATIONS 
       AND A TOTAL OF         13 INNER ITERATIONS.
    ------------------------------------------------
                                                   Max.-Head-Change                        Max.-Flux-Residual
  Residual-Control   Outer-Iter.   Inner-Iter.     Column Row Layer    Max.-Head-Change    Column Row Layer    Max.-Flux-Residual            L2-New               L2-Old           Solver-Max-Delh
          0                 1           5             9    9     2      -0.1536053140E-01       9    9    1      -0.1902954206E+02      0.2349816407E+02      0.2424823509E+00     -0.1536053140E-01
          0                 2           4             9    9     2       0.1326733340E-02       9    9    1       0.1902177737E+01      0.2402132310E+01      0.2349816407E+02      0.1326733340E-02
          0                 3           3             9    9     2       0.6634020982E-04       9    9    1       0.9509913740E-01      0.1328790305E+00      0.2402132310E+01      0.6634020982E-04

    ------------------------------------------------
       NWT REQUIRED            3 OUTER ITERATIONS 
       AND A TOTAL OF         12 INNER ITERATIONS.
    ------------------------------------------------
                                                   Max.-Head-Change                        Max.-Flux-Residual
  Residual-Control   Outer-Iter.   Inner-Iter.     Column Row Layer    Max.-Head-Change    Column Row Layer    Max.-Flux-Residual            L2-New               L2-Old           Solver-Max-Delh
          0                 1           5             9    9     1      -0.1002160896E-01       9    9    1      -0.1197860893E+02      0.1349767375E+02      0.1328790305E+00     -0.1002160896E-01
          0                 2           4             9    9     1       0.8657220434E-03       9    9    1       0.1197632698E+01      0.1369169059E+01      0.1349767375E+02      0.8657220434E-03
          0                 3           2             9    9     1       0.4283587662E-04       9    9    1       0.5988365691E-01      0.8178844598E-01      0.1369169059E+01      0.4283587662E-04

    ------------------------------------------------
       NWT REQUIRED            3 OUTER ITERATIONS 
       AND A TOTAL OF         11 INNER ITERATIONS.
    ------------------------------------------------
                                                   Max.-Head-Change                        Max.-Flux-Residual
  Residual-Control   Outer-Iter.   Inner-Iter.     Column Row Layer    Max.-Head-Change    Column Row Layer    Max.-Flux-Residual            L2-New               L2-Old           Solver-Max-Delh
          0                 1           4             9    9     1      -0.3650369187E-02       9    9    1      -0.4393770823E+01      0.5055870430E+01      0.8178844598E-01     -0.3650369187E-02
          0                 2           3             9    9     1       0.3154775640E-03       9    9    1       0.4393283112E+00      0.5154057519E+00      0.5055870430E+01      0.3154775640E-03
          0                 3           2             9    9     1       0.1561806483E-04       9    9    1       0.2211724853E-01      0.3510284261E-01      0.5154057519E+00      0.1561806483E-04

    ------------------------------------------------
       NWT REQUIRED            3 OUTER ITERATIONS 
       AND A TOTAL OF          9 INNER ITERATIONS.
    ------------------------------------------------
                                                   Max.-Head-Change                        Max.-Flux-Residual
  Residual-Control   Outer-Iter.   Inner-Iter.     Column Row Layer    Max.-Head-Change    Column Row Layer    Max.-Flux-Residual            L2-New               L2-Old           Solver-Max-Delh
          0                 1           4             9    9     3       0.9334914198E-03       9   10    1       0.6892851602E+00      0.1402854833E+01      0.3510284261E-01      0.9334914198E-03
          0                 2           3             9    9     3      -0.8043640093E-04       9   10    1      -0.6872315571E-01      0.1474894659E+00      0.1402854833E+01     -0.8043640093E-04

    ------------------------------------------------
       NWT REQUIRED            2 OUTER ITERATIONS 
       AND A TOTAL OF          7 INNER ITERATIONS.
    ------------------------------------------------
                                                   Max.-Head-Change                        Max.-Flux-Residual
  Residual-Control   Outer-Iter.   Inner-Iter.     Column Row Layer    Max.-Head-Change    Column Row Layer    Max.-Flux-Residual            L2-New               L2-Old           Solver-Max-Delh
          0                 1           4             9    9     2       0.1075297427E-02       9    9    1       0.7577763856E+00      0.1208270797E+01      0.1474894659E+00      0.1075297427E-02
          0                 2           3             9    9     2      -0.9304711488E-04       9    9    1      -0.7592412041E-01      0.1244120509E+00      0.1208270797E+01     -0.9304711488E-04

    ------------------------------------------------
       NWT REQUIRED            2 OUTER ITERATIONS 
       AND A TOTAL OF          7 INNER ITERATIONS.
    ------------------------------------------------

 OUTPUT CONTROL FOR STRESS PERIOD     19   TIME STEP     2
    SAVE BUDGET
 UBDSV1 SAVING "         STORAGE" ON UNIT  70 AT TIME STEP    2, STRESS PERIOD  19
 UBDSV2 SAVING "   CONSTANT HEAD" ON UNIT  70 AT TIME STEP    2, STRESS PERIOD  19
 UBDSV1 SAVING "FLOW RIGHT FACE " ON UNIT  70 AT TIME STEP    2, STRESS PERIOD  19
 UBDSV1 SAVING "FLOW FRONT FACE " ON UNIT  70 AT TIME STEP    2, STRESS PERIOD  19
 UBDSV1 SAVING "FLOW LOWER FACE " ON UNIT  70 AT TIME STEP    2, STRESS PERIOD  19
 UBDSV4 SAVING " HEAD DEP BOUNDS" ON UNIT  70 AT TIME STEP    2, STRESS PERIOD  19
 UBDSV4 SAVING "  STREAM LEAKAGE" ON UNIT  70 AT TIME STEP    2, STRESS PERIOD  19



 UBDSV4 SAVING "             MNW" ON UNIT  70 AT TIME STEP    2, STRESS PERIOD  19
 
 
 
 
 
 
 
 
 UBDSV3 SAVING "FARM  NET  RECH." ON UNIT  70 AT TIME STEP    2, STRESS PERIOD  19
 UBDSV4 SAVING " GHOST-NODE FLUX" ON UNIT  70 AT TIME STEP    2, STRESS PERIOD  19
 UBDSV4 SAVING " GHOST-NODE FLUX" ON UNIT  70 AT TIME STEP    2, STRESS PERIOD  19
 UBDSV4 SAVING " GHOST-NODE FLUX" ON UNIT  70 AT TIME STEP    2, STRESS PERIOD  19
1
  VOLUMETRIC BUDGET FOR ENTIRE MODEL AT END OF TIME STEP    2 IN STRESS PERIOD     19
  ------------------------------------------------------------------------------

     CUMULATIVE VOLUMES      L**3       RATES FOR THIS TIME STEP      L**3/T
     ------------------                 ------------------------

           IN:                                      IN:
           ---                                      ---
             STORAGE =    16470766.0000               STORAGE =       26063.8496
       CONSTANT HEAD =           0.0000         CONSTANT HEAD =           0.0000
     HEAD DEP BOUNDS =     4220409.5000       HEAD DEP BOUNDS =        8388.0078
      STREAM LEAKAGE =     9618302.0000        STREAM LEAKAGE =       13024.8506
                 MNW =       36021.4414                   MNW =           0.0000
          FARM WELLS =           0.0000            FARM WELLS =           0.0000
    FARM  NET  RECH. =    10936564.0000      FARM  NET  RECH. =       10852.0283
     GHOST-NODE FLUX =     3500692.2500       GHOST-NODE FLUX =        6572.5010

            TOTAL IN =    44782756.0000              TOTAL IN =       64901.2383

          OUT:                                     OUT:
          ----                                     ----
             STORAGE =     8082959.5000               STORAGE =         771.8632
       CONSTANT HEAD =           0.0000         CONSTANT HEAD =           0.0000
     HEAD DEP BOUNDS =     9824265.0000       HEAD DEP BOUNDS =       15749.3740
      STREAM LEAKAGE =      698085.0625        STREAM LEAKAGE =           8.3935
                 MNW =     5672151.0000                   MNW =       20872.1934
          FARM WELLS =     5931986.0000            FARM WELLS =       15321.8145
    FARM  NET  RECH. =     2199475.7500      FARM  NET  RECH. =        3239.2776
     GHOST-NODE FLUX =    12373834.0000       GHOST-NODE FLUX =        8938.3467

           TOTAL OUT =    44782756.0000             TOTAL OUT =       64901.2578

            IN - OUT =           0.0000              IN - OUT =      -1.9531E-02

 PERCENT DISCREPANCY =           0.00     PERCENT DISCREPANCY =          -0.00






          TIME SUMMARY AT END OF TIME STEP     2 IN STRESS PERIOD     19
                    SECONDS     MINUTES      HOURS       DAYS        YEARS
                    -----------------------------------------------------------
   TIME STEP LENGTH 1.31414E+06  21902.      365.04      15.210     4.16427E-02
 STRESS PERIOD TIME 2.62829E+06  43805.      730.08      30.420     8.32854E-02
         TOTAL TIME 4.99375E+07 8.32291E+05  13872.      577.98      1.5824    
1
1
                            STRESS PERIOD NO.     20, LENGTH =   30.42000    
                            -----------------------------------------------

                              NUMBER OF TIME STEPS =     2

                               MULTIPLIER FOR DELT =     1.000

                            INITIAL TIME STEP SIZE =   15.21000    

 REUSING NON-PARAMETER GHB CELLS FROM LAST STRESS PERIOD

     92 GHB CELLS

 REUSING STREAM SEGMENT DATA FROM LAST STRESS PERIOD

 REUSING MNW7  FROM LAST STRESS PERIOD

 Parameter:  WELLS1
 WELL NO. LAYER    ROW    COL  F-WELL ID    FARM ID         QMAX         QMAXRESET       
 ----------------------------------------------------------------------------------------
       1      1      5      6          1          1      5.0000E+03              0
       2      1      8      7          2          1      5.0000E+03              0
       3      1      8      9          3          1      5.0000E+03              0
       4      1      5      9          4          2      3.0000E+03              0
       5      1      6     10          5          2      2.0000E+03              0
       6      1      7     11          6          2      1.0000E+03              0
       7      1     18      3          7          3      2.0000E+03              0
       8      1     21      3          8          3      4.0000E+03              0
       9      1     18     19          9          4      3.0000E+03              0
      10      1     21     19         10          4      5.0000E+03              0
      11      0      6      2        -11          5      5.0000E+03              1
      12      0      8      2        -12          5      5.0000E+03              1
      13      0     10      2        -13          5      5.0000E+03              1
      14      0      3     19        -14          6      1.0000E+04              1
      15      0      6     17        -15          6      6.0000E+03              1

 NUMBER OF ACTIVE FARM WELLS:       15

 THE SINGLE LAYER FMP- OR MNW- WELL IN ROW      8 AND COLUMN      7 IS LOCATED IN AN INACTIVE CELL (IBOUND=0) AND HAS BEEN EXCLUDED FROM THE TOTAL MAXIMUM CAPACITY PER FARM

 THE SINGLE LAYER FMP- OR MNW- WELL IN ROW      8 AND COLUMN      9 IS LOCATED IN AN INACTIVE CELL (IBOUND=0) AND HAS BEEN EXCLUDED FROM THE TOTAL MAXIMUM CAPACITY PER FARM

 THE SINGLE LAYER FMP- OR MNW- WELL IN ROW      6 AND COLUMN     10 IS LOCATED IN AN INACTIVE CELL (IBOUND=0) AND HAS BEEN EXCLUDED FROM THE TOTAL MAXIMUM CAPACITY PER FARM

 THE SINGLE LAYER FMP- OR MNW- WELL IN ROW      7 AND COLUMN     11 IS LOCATED IN AN INACTIVE CELL (IBOUND=0) AND HAS BEEN EXCLUDED FROM THE TOTAL MAXIMUM CAPACITY PER FARM

 FARM-ID  NUMBER OF WELLS PER FARM  TOTAL MAX.CAPACITY PER FARM
       1                         1                    5000.0000
       2                         1                    3000.0000
       3                         2                    6000.0000
       4                         2                    8000.0000
       5                         3                   15000.0000
       6                         2                   16000.0000
       7                         0                       0.0000
       8                         0                       0.0000

 READING LIST ON UNIT   20 WITH FILE NAME: C:\MF_OWHM_Release_Package\MF_OWHM_v1_0\examples\test-run-owhm-lgr\fmp-lgr-nwt\DATA_FMP\OFE.in
 LIST SCALING FACTOR=  1.0000    
 (THE SCALE FACTOR WAS APPLIED TO FIELDS   2 -   7)

 Reading list on unit   30

 Reading list on unit   40

  REF. EVAPOTRANSPIRATION =  6.170000E-03

 READING LIST ON UNIT   50 WITH FILE NAME: C:\MF_OWHM_Release_Package\MF_OWHM_v1_0\examples\test-run-owhm-lgr\fmp-lgr-nwt\DATA_FMP\FTE.in

Transpiratory and Evaporative Fractions of Crop Consumptive Use
    % Transpiration % Evap. for Precip. % Evap. for Irrig.
    1          0.000          1.000          0.500
    2          0.950          0.050          0.050
    3          0.000          1.000          1.000
    4          0.125          0.875          0.875
    5          0.927          0.073          0.000
    6          0.700          0.300          0.000

 READING LIST ON UNIT   60 WITH FILE NAME: C:\MF_OWHM_Release_Package\MF_OWHM_v1_0\examples\test-run-owhm-lgr\fmp-lgr-nwt\DATA_FMP\INEFFSW.in

FRACTIONS OF IN-EFFICIENT LOSSES TO SW-RUNOFF FROM 
     PRECIPITATION:  IRRIGATION:
    1          0.500          0.600
    2          0.400          0.300
    3          0.600          0.500
    4          0.700          0.600
    5          0.500          0.000
    6          0.300          0.000

       PRECIPITATION FLUX =  3.000000E-05

 OPENING FILE WITH FILENAME: ./DATA_FMP/NRDV.in
 AND UNIT NUMBER: -166
 READING SCALE FACTOR LIST ON UNIT   80 ASSOCIATED WITH FILE: C:\MF_OWHM_Release_Package\MF_OWHM_v1_0\examples\test-run-owhm-lgr\fmp-lgr-nwt\DATA_FMP\NRDV.in
 FIELD     SCALE FACTOR
     1       1.0000    
     2       5.0000    
     3       1.0000    
     4       1.0000    

UNRANKED LIST OF NON-ROUTED DELIVERIES TO FARMS [L3]:
TYPE:             1

FARM-ID  VOLUME:
      1   7.500E+04
      2   7.500E+04
      3   1.000E+05
      4   5.000E+04
      5   5.000E+04
      6   1.000E+05
      7   0.000E+00
      8   0.000E+00

FARM-ID  PRIORITY RANK OF NRD-TYPE:
      1           1
      2           1
      3           1
      4           1
      5           1
      6           1
      7           1
      8           1

FARM-ID  USE-FLAG:
         0 = SUFFICIENT USE
         1 = ABSOLUTE USE (RECHARGE SURPLUS BACK INTO CANAL)
         2 = ABSOLUTE USE (INJECT SURPLUS INTO FARM-WELLS)
      1           0
      2           0
      3           0
      4           0
      5           0
      6           0
      7           0
      8           0

LIST OF NON-ROUTED DELIVERIES IN RANKED SEQUENCE [L3/T]:

FARM-ID  RATE:
      1   2.465E+03
      2   2.465E+03
      3   3.287E+03
      4   1.644E+03
      5   1.644E+03
      6   3.287E+03
      7   0.000E+00
      8   0.000E+00

FARM-ID  USE-FLAG:
         0 = SUFFICIENT USE
         1 = ABSOLUTE USE (RECHARGE SURPLUS BACK INTO CANAL)
         2 = ABSOLUTE USE (INJECT SURPLUS INTO FARM-WELLS)
      1           0
      2           0
      3           0
      4           0
      5           0
      6           0
      7           0
      8           0

SURFACE-WATER FARM ALLOTMENT HEIGHT [L]:   0.050
 
 SOLVING FOR HEAD 
                                                   Max.-Head-Change                        Max.-Flux-Residual
  Residual-Control   Outer-Iter.   Inner-Iter.     Column Row Layer    Max.-Head-Change    Column Row Layer    Max.-Flux-Residual            L2-New               L2-Old           Solver-Max-Delh
          0                 1           9             6    5     1       0.2047412487E+01       6    5    1       0.4913283263E+04      0.8589256546E+04      0.1244120509E+00      0.2047412487E+01
          0                 2           8             6    5     1      -0.2060788833E+01       6    5    1      -0.5526787628E+04      0.7947742483E+04      0.8589256546E+04     -0.2060788833E+01
          0                 3           8             9    5     1      -0.3477019226E+01       9    5    1      -0.6793312345E+04      0.7199460374E+04      0.7947742483E+04     -0.3477019226E+01
          0                 4           8             9    5     1       0.1521282704E+01       9    5    1       0.3314588216E+04      0.3350353763E+04      0.7199460374E+04      0.1521282704E+01
          0                 5           7             9    5     1       0.2622257397E+00       9    5    1       0.5714978514E+03      0.5927712580E+03      0.3350353763E+04      0.2622257397E+00
          0                 6           6             9    5     1       0.4630796003E-01       9    5    1       0.1009269907E+03      0.1128453182E+03      0.5927712580E+03      0.4630796003E-01
          0                 7           5             9    5     1       0.8212088681E-02       9    5    1       0.1789549317E+02      0.2296267932E+02      0.1128453182E+03      0.8212088681E-02
          0                 8           4             9    5     1       0.1457318745E-02       9    5    1       0.3175176277E+01      0.5266006527E+01      0.2296267932E+02      0.1457318745E-02
          0                 9           4             9    5     1       0.2586665949E-03      11    4    1       0.7174694589E+00      0.1359511171E+01      0.5266006527E+01      0.2586665949E-03
          0                10           3            11    4     1       0.6405855666E-04      11    4    1       0.2157537727E+00      0.3773589180E+00      0.1359511171E+01      0.6405855666E-04

    ------------------------------------------------
       NWT REQUIRED           10 OUTER ITERATIONS 
       AND A TOTAL OF         62 INNER ITERATIONS.
    ------------------------------------------------
                                                   Max.-Head-Change                        Max.-Flux-Residual
  Residual-Control   Outer-Iter.   Inner-Iter.     Column Row Layer    Max.-Head-Change    Column Row Layer    Max.-Flux-Residual            L2-New               L2-Old           Solver-Max-Delh
          0                 1           8             9   10     1      -0.9177670239E+00       9   10    1      -0.8908277189E+03      0.1576003725E+04      0.3773589180E+00     -0.9177670239E+00
          0                 2           6             9   10     1       0.7741896466E-01       9   10    1       0.8516661199E+02      0.1503716833E+03      0.1576003725E+04      0.7741896466E-01
          0                 3           5             9   10     1       0.3856589067E-02       9   10    1       0.4230744959E+01      0.9902464469E+01      0.1503716833E+03      0.3856589067E-02
          0                 4           4            19    3     3       0.7959448188E-03      19   18    1       0.2815708686E+00      0.7375769863E+00      0.9902464469E+01      0.7959448188E-03
          0                 5           3            19    3     3       0.1891663638E-03       2    8    1       0.6294317846E-01      0.1287565837E+00      0.7375769863E+00      0.1891663638E-03
          0                 6           2            19    3     3       0.4426252056E-04       2    8    1       0.1934530609E-01      0.4188565945E-01      0.1287565837E+00      0.4426252056E-04

    ------------------------------------------------
       NWT REQUIRED            6 OUTER ITERATIONS 
       AND A TOTAL OF         28 INNER ITERATIONS.
    ------------------------------------------------
                                                   Max.-Head-Change                        Max.-Flux-Residual
  Residual-Control   Outer-Iter.   Inner-Iter.     Column Row Layer    Max.-Head-Change    Column Row Layer    Max.-Flux-Residual            L2-New               L2-Old           Solver-Max-Delh
          0                 1           7             9    9     1       0.3426558833E+00       9    9    1       0.3042856865E+03      0.3963890275E+03      0.4188565945E-01      0.3426558833E+00
          0                 2           6             9    9     1      -0.2985353709E-01       9    9    1      -0.3098166806E+02      0.4011816469E+02      0.3963890275E+03     -0.2985353709E-01
          0                 3           4             9    9     1      -0.1496913395E-02       9    9    1      -0.1554022184E+01      0.2044183260E+01      0.4011816469E+02     -0.1496913395E-02
          0                 4           3             9    9     1      -0.7538203327E-04       2    8    1      -0.7871375117E-01      0.1587914948E+00      0.2044183260E+01     -0.7538203327E-04

    ------------------------------------------------
       NWT REQUIRED            4 OUTER ITERATIONS 
       AND A TOTAL OF         20 INNER ITERATIONS.
    ------------------------------------------------
                                                   Max.-Head-Change                        Max.-Flux-Residual
  Residual-Control   Outer-Iter.   Inner-Iter.     Column Row Layer    Max.-Head-Change    Column Row Layer    Max.-Flux-Residual            L2-New               L2-Old           Solver-Max-Delh
          0                 1           7             9    9     1       0.1789708225E+00       9    9    1       0.1483309049E+03      0.2054022150E+03      0.1587914948E+00      0.1789708225E+00
          0                 2           5             9    9     1      -0.1552838835E-01       9    9    1      -0.1497963707E+02      0.2071158825E+02      0.2054022150E+03     -0.1552838835E-01
          0                 3           4             9    9     1      -0.7777217091E-03       9    9    1      -0.7501536303E+00      0.1085148671E+01      0.2071158825E+02     -0.7777217091E-03
          0                 4           3             9    9     1      -0.3883150407E-04       2    8    1      -0.4178270174E-01      0.8852325356E-01      0.1085148671E+01     -0.3883150407E-04

    ------------------------------------------------
       NWT REQUIRED            4 OUTER ITERATIONS 
       AND A TOTAL OF         19 INNER ITERATIONS.
    ------------------------------------------------
                                                   Max.-Head-Change                        Max.-Flux-Residual
  Residual-Control   Outer-Iter.   Inner-Iter.     Column Row Layer    Max.-Head-Change    Column Row Layer    Max.-Flux-Residual            L2-New               L2-Old           Solver-Max-Delh
          0                 1           6             9    9     1       0.4789722010E-01       7    9    1       0.3734534758E+02      0.7310793486E+02      0.8852325356E-01      0.4789722010E-01
          0                 2           5             9    9     1      -0.4141149125E-02       7    9    1      -0.3740015023E+01      0.7418267396E+01      0.7310793486E+02     -0.4141149125E-02
          0                 3           3             9    9     1      -0.2073365698E-03       7    9    1      -0.1875663703E+00      0.4384172157E+00      0.7418267396E+01     -0.2073365698E-03
          0                 4           2             9    9     1      -0.1018614259E-04      20    9    1      -0.2378819801E-01      0.4863514286E-01      0.4384172157E+00     -0.1018614259E-04

    ------------------------------------------------
       NWT REQUIRED            4 OUTER ITERATIONS 
       AND A TOTAL OF         16 INNER ITERATIONS.
    ------------------------------------------------
                                                   Max.-Head-Change                        Max.-Flux-Residual
  Residual-Control   Outer-Iter.   Inner-Iter.     Column Row Layer    Max.-Head-Change    Column Row Layer    Max.-Flux-Residual            L2-New               L2-Old           Solver-Max-Delh
          0                 1           6             9    9     2      -0.1225779740E-01       9    9    1      -0.1860695519E+02      0.3520204280E+02      0.4863514286E-01     -0.1225779740E-01
          0                 2           4             9    9     2       0.1058656484E-02       9    9    1       0.1861218020E+01      0.3594736835E+01      0.3520204280E+02      0.1058656484E-02
          0                 3           3             9    9     2       0.5321594386E-04       9    9    1       0.9312261720E-01      0.2258503572E+00      0.3594736835E+01      0.5321594386E-04

    ------------------------------------------------
       NWT REQUIRED            3 OUTER ITERATIONS 
       AND A TOTAL OF         13 INNER ITERATIONS.
    ------------------------------------------------
                                                   Max.-Head-Change                        Max.-Flux-Residual
  Residual-Control   Outer-Iter.   Inner-Iter.     Column Row Layer    Max.-Head-Change    Column Row Layer    Max.-Flux-Residual            L2-New               L2-Old           Solver-Max-Delh
          0                 1           5             9    9     1      -0.1772062460E-01       9    9    1      -0.2247878800E+02      0.2634490646E+02      0.2258503572E+00     -0.1772062460E-01
          0                 2           4             9    9     1       0.1530407890E-02       9    9    1       0.2246586017E+01      0.2657649779E+01      0.2634490646E+02      0.1530407890E-02
          0                 3           3             9    9     1       0.7616558352E-04       9    9    1       0.1124209350E+00      0.1491692830E+00      0.2657649779E+01      0.7616558352E-04

    ------------------------------------------------
       NWT REQUIRED            3 OUTER ITERATIONS 
       AND A TOTAL OF         12 INNER ITERATIONS.
    ------------------------------------------------
                                                   Max.-Head-Change                        Max.-Flux-Residual
  Residual-Control   Outer-Iter.   Inner-Iter.     Column Row Layer    Max.-Head-Change    Column Row Layer    Max.-Flux-Residual            L2-New               L2-Old           Solver-Max-Delh
          0                 1           5             9    9     1      -0.1072826920E-01       9    9    1      -0.1267031493E+02      0.1397536959E+02      0.1491692830E+00     -0.1072826920E-01
          0                 2           4             9    9     1       0.9261140262E-03       9    9    1       0.1266283197E+01      0.1406144601E+01      0.1397536959E+02      0.9261140262E-03
          0                 3           2             9    9     1       0.4613546550E-04       9    9    1       0.6337615853E-01      0.7870175589E-01      0.1406144601E+01      0.4613546550E-04

    ------------------------------------------------
       NWT REQUIRED            3 OUTER ITERATIONS 
       AND A TOTAL OF         11 INNER ITERATIONS.
    ------------------------------------------------
                                                   Max.-Head-Change                        Max.-Flux-Residual
  Residual-Control   Outer-Iter.   Inner-Iter.     Column Row Layer    Max.-Head-Change    Column Row Layer    Max.-Flux-Residual            L2-New               L2-Old           Solver-Max-Delh
          0                 1           4             9    9     1      -0.3443616652E-02       9    9    1      -0.4072021663E+01      0.4708146520E+01      0.7870175589E-01     -0.3443616652E-02
          0                 2           3             9    9     1       0.2974400885E-03       9    9    1       0.4070936297E+00      0.4758058651E+00      0.4708146520E+01      0.2974400885E-03
          0                 3           2             9    9     1       0.1480652070E-04       9    9    1       0.2028982557E-01      0.3212025089E-01      0.4758058651E+00      0.1480652070E-04

    ------------------------------------------------
       NWT REQUIRED            3 OUTER ITERATIONS 
       AND A TOTAL OF          9 INNER ITERATIONS.
    ------------------------------------------------
                                                   Max.-Head-Change                        Max.-Flux-Residual
  Residual-Control   Outer-Iter.   Inner-Iter.     Column Row Layer    Max.-Head-Change    Column Row Layer    Max.-Flux-Residual            L2-New               L2-Old           Solver-Max-Delh
          0                 1           4             9    9     3       0.1059826429E-02       9   10    1       0.6886598730E+00      0.1466881123E+01      0.3212025089E-01      0.1059826429E-02
          0                 2           3             9    9     3      -0.9164439025E-04       9   10    1      -0.6847333623E-01      0.1491577348E+00      0.1466881123E+01     -0.9164439025E-04

    ------------------------------------------------
       NWT REQUIRED            2 OUTER ITERATIONS 
       AND A TOTAL OF          7 INNER ITERATIONS.
    ------------------------------------------------
                                                   Max.-Head-Change                        Max.-Flux-Residual
  Residual-Control   Outer-Iter.   Inner-Iter.     Column Row Layer    Max.-Head-Change    Column Row Layer    Max.-Flux-Residual            L2-New               L2-Old           Solver-Max-Delh
          0                 1           4             9    9     2       0.1240667602E-02       9    9    1       0.1003424502E+01      0.1449172380E+01      0.1491577348E+00      0.1240667602E-02
          0                 2           3             9    9     2      -0.1073561019E-03       9    9    1      -0.1003716028E+00      0.1472951209E+00      0.1449172380E+01     -0.1073561019E-03
          0                 3           1             9    9     2      -0.5043758765E-05      13   13    1      -0.6667094538E-02      0.1940609976E-01      0.1472951209E+00     -0.5043758765E-05

    ------------------------------------------------
       NWT REQUIRED            3 OUTER ITERATIONS 
       AND A TOTAL OF          8 INNER ITERATIONS.
    ------------------------------------------------

 OUTPUT CONTROL FOR STRESS PERIOD     20   TIME STEP     1
    SAVE BUDGET
 UBDSV1 SAVING "         STORAGE" ON UNIT  70 AT TIME STEP    1, STRESS PERIOD  20
 UBDSV2 SAVING "   CONSTANT HEAD" ON UNIT  70 AT TIME STEP    1, STRESS PERIOD  20
 UBDSV1 SAVING "FLOW RIGHT FACE " ON UNIT  70 AT TIME STEP    1, STRESS PERIOD  20
 UBDSV1 SAVING "FLOW FRONT FACE " ON UNIT  70 AT TIME STEP    1, STRESS PERIOD  20
 UBDSV1 SAVING "FLOW LOWER FACE " ON UNIT  70 AT TIME STEP    1, STRESS PERIOD  20
 UBDSV4 SAVING " HEAD DEP BOUNDS" ON UNIT  70 AT TIME STEP    1, STRESS PERIOD  20
 UBDSV4 SAVING "  STREAM LEAKAGE" ON UNIT  70 AT TIME STEP    1, STRESS PERIOD  20



 UBDSV4 SAVING "             MNW" ON UNIT  70 AT TIME STEP    1, STRESS PERIOD  20
 
 
 
 
 
 
 
 
 UBDSV3 SAVING "FARM  NET  RECH." ON UNIT  70 AT TIME STEP    1, STRESS PERIOD  20
 UBDSV4 SAVING " GHOST-NODE FLUX" ON UNIT  70 AT TIME STEP    1, STRESS PERIOD  20
 UBDSV4 SAVING " GHOST-NODE FLUX" ON UNIT  70 AT TIME STEP    1, STRESS PERIOD  20
 UBDSV4 SAVING " GHOST-NODE FLUX" ON UNIT  70 AT TIME STEP    1, STRESS PERIOD  20
 
 SOLVING FOR HEAD 
                                                   Max.-Head-Change                        Max.-Flux-Residual
  Residual-Control   Outer-Iter.   Inner-Iter.     Column Row Layer    Max.-Head-Change    Column Row Layer    Max.-Flux-Residual            L2-New               L2-Old           Solver-Max-Delh
          0                 1           8             9   10     1       0.4923862326E+00       9   10    1       0.7231754068E+03      0.1760623288E+04      0.1940609976E-01      0.4923862326E+00
          0                 2           7            19    3     3       0.8665622262E-01      12   16    1       0.1061928727E+03      0.2128428199E+03      0.1760623288E+04      0.8665622262E-01
          0                 3           5            19    3     3       0.2179462822E-01      12   16    1      -0.1136280742E+02      0.2117913451E+02      0.2128428199E+03      0.2179462822E-01
          0                 4           5            19    3     3       0.5267683500E-02       2    6    1       0.1718561323E+01      0.3426826743E+01      0.2117913451E+02      0.5267683500E-02
          0                 5           4            19    3     3       0.1263350911E-02       2    6    1       0.5021170620E+00      0.9159180571E+00      0.3426826743E+01      0.1263350911E-02
          0                 6           3            19    3     3       0.3027336435E-03       2    6    1       0.1453553708E+00      0.2591926715E+00      0.9159180571E+00      0.3027336435E-03
          0                 7           2            19    3     3       0.7130952990E-04       2    6    1       0.4251062265E-01      0.7663546433E-01      0.2591926715E+00      0.7130952990E-04

    ------------------------------------------------
       NWT REQUIRED            7 OUTER ITERATIONS 
       AND A TOTAL OF         34 INNER ITERATIONS.
    ------------------------------------------------
                                                   Max.-Head-Change                        Max.-Flux-Residual
  Residual-Control   Outer-Iter.   Inner-Iter.     Column Row Layer    Max.-Head-Change    Column Row Layer    Max.-Flux-Residual            L2-New               L2-Old           Solver-Max-Delh
          0                 1           8             9   10     1      -0.9765719647E+00       9   10    1      -0.9048768666E+03      0.1620316199E+04      0.7663546433E-01     -0.9765719647E+00
          0                 2           7             9   10     1       0.8233701707E-01       9   10    1       0.8662668454E+02      0.1587242919E+03      0.1620316199E+04      0.8233701707E-01
          0                 3           5             9   10     1       0.4101292428E-02       9   10    1       0.4304235161E+01      0.1008633193E+02      0.1587242919E+03      0.4101292428E-02
          0                 4           4            19    3     3       0.5003080815E-03      19   18    1       0.2805342142E+00      0.7266321662E+00      0.1008633193E+02      0.5003080815E-03
          0                 5           3            19    3     3       0.1189663182E-03       2    8    1       0.7045615965E-01      0.1249050369E+00      0.7266321662E+00      0.1189663182E-03
          0                 6           2            19    3     3       0.2790834712E-04      20   13    1       0.2411432163E-01      0.4402636223E-01      0.1249050369E+00      0.2790834712E-04

    ------------------------------------------------
       NWT REQUIRED            6 OUTER ITERATIONS 
       AND A TOTAL OF         29 INNER ITERATIONS.
    ------------------------------------------------
                                                   Max.-Head-Change                        Max.-Flux-Residual
  Residual-Control   Outer-Iter.   Inner-Iter.     Column Row Layer    Max.-Head-Change    Column Row Layer    Max.-Flux-Residual            L2-New               L2-Old           Solver-Max-Delh
          0                 1           7             9    9     1       0.3101144496E+00       9    9    1       0.2793994900E+03      0.3561572374E+03      0.4402636223E-01      0.3101144496E+00
          0                 2           6             9    9     1      -0.2699664898E-01       9    9    1      -0.2839789939E+02      0.3600790165E+02      0.3561572374E+03     -0.2699664898E-01
          0                 3           4             9    9     1      -0.1352998158E-02       9    9    1      -0.1423599693E+01      0.1830372935E+01      0.3600790165E+02     -0.1352998158E-02
          0                 4           3             9    9     1      -0.6803178306E-04       9    9    1      -0.7122059914E-01      0.1438039472E+00      0.1830372935E+01     -0.6803178306E-04

    ------------------------------------------------
       NWT REQUIRED            4 OUTER ITERATIONS 
       AND A TOTAL OF         20 INNER ITERATIONS.
    ------------------------------------------------
                                                   Max.-Head-Change                        Max.-Flux-Residual
  Residual-Control   Outer-Iter.   Inner-Iter.     Column Row Layer    Max.-Head-Change    Column Row Layer    Max.-Flux-Residual            L2-New               L2-Old           Solver-Max-Delh
          0                 1           7             9    9     1       0.1776714112E+00       9    9    1       0.1515715954E+03      0.1987985207E+03      0.1438039472E+00      0.1776714112E+00
          0                 2           5             9    9     1      -0.1541578142E-01       9    9    1      -0.1530602058E+02      0.2002918764E+02      0.1987985207E+03     -0.1541578142E-01
          0                 3           4             9    9     1      -0.7716337395E-03       9    9    1      -0.7660758037E+00      0.1034749033E+01      0.2002918764E+02     -0.7716337395E-03
          0                 4           3             9    9     1      -0.3887959979E-04       9    9    1      -0.3864945989E-01      0.8105748111E-01      0.1034749033E+01     -0.3887959979E-04

    ------------------------------------------------
       NWT REQUIRED            4 OUTER ITERATIONS 
       AND A TOTAL OF         19 INNER ITERATIONS.
    ------------------------------------------------
                                                   Max.-Head-Change                        Max.-Flux-Residual
  Residual-Control   Outer-Iter.   Inner-Iter.     Column Row Layer    Max.-Head-Change    Column Row Layer    Max.-Flux-Residual            L2-New               L2-Old           Solver-Max-Delh
          0                 1           6             9    9     1       0.5502466017E-01       9    9    1       0.3840927408E+02      0.7312900218E+02      0.8105748111E-01      0.5502466017E-01
          0                 2           5             9    9     1      -0.4758411232E-02       9    9    1      -0.3852647178E+01      0.7391833638E+01      0.7312900218E+02     -0.4758411232E-02
          0                 3           3             9    9     1      -0.2382684387E-03       9    9    1      -0.1924006241E+00      0.4191138255E+00      0.7391833638E+01     -0.2382684387E-03
          0                 4           2             9    9     1      -0.1184985323E-04       2    8    1      -0.1839041873E-01      0.4054747898E-01      0.4191138255E+00     -0.1184985323E-04

    ------------------------------------------------
       NWT REQUIRED            4 OUTER ITERATIONS 
       AND A TOTAL OF         16 INNER ITERATIONS.
    ------------------------------------------------
                                                   Max.-Head-Change                        Max.-Flux-Residual
  Residual-Control   Outer-Iter.   Inner-Iter.     Column Row Layer    Max.-Head-Change    Column Row Layer    Max.-Flux-Residual            L2-New               L2-Old           Solver-Max-Delh
          0                 1           6             6    8     1       0.1077500231E-01       6    8    1       0.1334085056E+02      0.3030518161E+02      0.4054747898E-01      0.1077500231E-01
          0                 2           4             6    8     1      -0.9300641946E-03       6    8    1      -0.1335063557E+01      0.3095397039E+01      0.3030518161E+02     -0.9300641946E-03
          0                 3           3             6    8     1      -0.4698693689E-04      19   18    1      -0.6915684999E-01      0.1952925551E+00      0.3095397039E+01     -0.4698693689E-04

    ------------------------------------------------
       NWT REQUIRED            3 OUTER ITERATIONS 
       AND A TOTAL OF         13 INNER ITERATIONS.
    ------------------------------------------------
                                                   Max.-Head-Change                        Max.-Flux-Residual
  Residual-Control   Outer-Iter.   Inner-Iter.     Column Row Layer    Max.-Head-Change    Column Row Layer    Max.-Flux-Residual            L2-New               L2-Old           Solver-Max-Delh
          0                 1           5             9    9     2      -0.1588149153E-01       9    9    1      -0.1974043462E+02      0.2363327604E+02      0.1952925551E+00     -0.1588149153E-01
          0                 2           4             9    9     2       0.1371515630E-02       9    9    1       0.1972461779E+01      0.2383537247E+01      0.2363327604E+02      0.1371515630E-02
          0                 3           3             9    9     2       0.6866926281E-04       9    9    1       0.9901705084E-01      0.1338926011E+00      0.2383537247E+01      0.6866926281E-04

    ------------------------------------------------
       NWT REQUIRED            3 OUTER ITERATIONS 
       AND A TOTAL OF         12 INNER ITERATIONS.
    ------------------------------------------------
                                                   Max.-Head-Change                        Max.-Flux-Residual
  Residual-Control   Outer-Iter.   Inner-Iter.     Column Row Layer    Max.-Head-Change    Column Row Layer    Max.-Flux-Residual            L2-New               L2-Old           Solver-Max-Delh
          0                 1           5             9    9     1      -0.1040959886E-01       9    9    1      -0.1224569226E+02      0.1353525817E+02      0.1338926011E+00     -0.1040959886E-01
          0                 2           4             9    9     1       0.8990492276E-03       9    9    1       0.1224311744E+01      0.1361223340E+01      0.1353525817E+02      0.8990492276E-03
          0                 3           2             9    9     1       0.4460185859E-04       9    9    1       0.6108579945E-01      0.7432203866E-01      0.1361223340E+01      0.4460185859E-04

    ------------------------------------------------
       NWT REQUIRED            3 OUTER ITERATIONS 
       AND A TOTAL OF         11 INNER ITERATIONS.
    ------------------------------------------------
                                                   Max.-Head-Change                        Max.-Flux-Residual
  Residual-Control   Outer-Iter.   Inner-Iter.     Column Row Layer    Max.-Head-Change    Column Row Layer    Max.-Flux-Residual            L2-New               L2-Old           Solver-Max-Delh
          0                 1           4             9    9     1      -0.3770165755E-02       9    9    1      -0.4414204361E+01      0.4951915591E+01      0.7432203866E-01     -0.3770165755E-02
          0                 2           3             9    9     1       0.3258824082E-03       9    9    1       0.4413507827E+00      0.5000034091E+00      0.4951915591E+01      0.3258824082E-03
          0                 3           2             9    9     1       0.1622479367E-04       9    9    1       0.2195209381E-01      0.3303718474E-01      0.5000034091E+00      0.1622479367E-04

    ------------------------------------------------
       NWT REQUIRED            3 OUTER ITERATIONS 
       AND A TOTAL OF          9 INNER ITERATIONS.
    ------------------------------------------------
                                                   Max.-Head-Change                        Max.-Flux-Residual
  Residual-Control   Outer-Iter.   Inner-Iter.     Column Row Layer    Max.-Head-Change    Column Row Layer    Max.-Flux-Residual            L2-New               L2-Old           Solver-Max-Delh
          0                 1           4             9    9     3       0.9469159617E-03       9   10    1       0.5793810666E+00      0.1303546001E+01      0.3303718474E-01      0.9469159617E-03
          0                 2           3             9    9     3      -0.8193266690E-04       9   10    1      -0.5793107513E-01      0.1346554115E+00      0.1303546001E+01     -0.8193266690E-04

    ------------------------------------------------
       NWT REQUIRED            2 OUTER ITERATIONS 
       AND A TOTAL OF          7 INNER ITERATIONS.
    ------------------------------------------------
                                                   Max.-Head-Change                        Max.-Flux-Residual
  Residual-Control   Outer-Iter.   Inner-Iter.     Column Row Layer    Max.-Head-Change    Column Row Layer    Max.-Flux-Residual            L2-New               L2-Old           Solver-Max-Delh
          0                 1           4             9    9     2       0.1105037938E-02       9    9    1       0.8175504305E+00      0.1233120740E+01      0.1346554115E+00      0.1105037938E-02
          0                 2           3             9    9     2      -0.9555492199E-04       9    9    1      -0.8177285496E-01      0.1249167551E+00      0.1233120740E+01     -0.9555492199E-04

    ------------------------------------------------
       NWT REQUIRED            2 OUTER ITERATIONS 
       AND A TOTAL OF          7 INNER ITERATIONS.
    ------------------------------------------------

 OUTPUT CONTROL FOR STRESS PERIOD     20   TIME STEP     2
    SAVE BUDGET
 UBDSV1 SAVING "         STORAGE" ON UNIT  70 AT TIME STEP    2, STRESS PERIOD  20
 UBDSV2 SAVING "   CONSTANT HEAD" ON UNIT  70 AT TIME STEP    2, STRESS PERIOD  20
 UBDSV1 SAVING "FLOW RIGHT FACE " ON UNIT  70 AT TIME STEP    2, STRESS PERIOD  20
 UBDSV1 SAVING "FLOW FRONT FACE " ON UNIT  70 AT TIME STEP    2, STRESS PERIOD  20
 UBDSV1 SAVING "FLOW LOWER FACE " ON UNIT  70 AT TIME STEP    2, STRESS PERIOD  20
 UBDSV4 SAVING " HEAD DEP BOUNDS" ON UNIT  70 AT TIME STEP    2, STRESS PERIOD  20
 UBDSV4 SAVING "  STREAM LEAKAGE" ON UNIT  70 AT TIME STEP    2, STRESS PERIOD  20



 UBDSV4 SAVING "             MNW" ON UNIT  70 AT TIME STEP    2, STRESS PERIOD  20
 
 
 
 
 
 
 
 
 UBDSV3 SAVING "FARM  NET  RECH." ON UNIT  70 AT TIME STEP    2, STRESS PERIOD  20
 UBDSV4 SAVING " GHOST-NODE FLUX" ON UNIT  70 AT TIME STEP    2, STRESS PERIOD  20
 UBDSV4 SAVING " GHOST-NODE FLUX" ON UNIT  70 AT TIME STEP    2, STRESS PERIOD  20
 UBDSV4 SAVING " GHOST-NODE FLUX" ON UNIT  70 AT TIME STEP    2, STRESS PERIOD  20
1
  VOLUMETRIC BUDGET FOR ENTIRE MODEL AT END OF TIME STEP    2 IN STRESS PERIOD     20
  ------------------------------------------------------------------------------

     CUMULATIVE VOLUMES      L**3       RATES FOR THIS TIME STEP      L**3/T
     ------------------                 ------------------------

           IN:                                      IN:
           ---                                      ---
             STORAGE =    17181056.0000               STORAGE =       22740.0645
       CONSTANT HEAD =           0.0000         CONSTANT HEAD =           0.0000
     HEAD DEP BOUNDS =     4478675.0000       HEAD DEP BOUNDS =        8526.4932
      STREAM LEAKAGE =    10016719.0000        STREAM LEAKAGE =       13243.3838
                 MNW =       36021.4414                   MNW =           0.0000
          FARM WELLS =           0.0000            FARM WELLS =           0.0000
    FARM  NET  RECH. =    11230546.0000      FARM  NET  RECH. =        9704.4316
     GHOST-NODE FLUX =     3702404.0000       GHOST-NODE FLUX =        6648.3721

            TOTAL IN =    46645424.0000              TOTAL IN =       60862.7461

          OUT:                                     OUT:
          ----                                     ----
             STORAGE =     8101058.5000               STORAGE =         405.3399
       CONSTANT HEAD =           0.0000         CONSTANT HEAD =           0.0000
     HEAD DEP BOUNDS =    10297797.0000       HEAD DEP BOUNDS =       15507.8916
      STREAM LEAKAGE =      698085.0625        STREAM LEAKAGE =           0.0000
                 MNW =     6282364.5000                   MNW =       20045.5938
          FARM WELLS =     6355708.0000            FARM WELLS =       13973.8428
    FARM  NET  RECH. =     2277151.5000      FARM  NET  RECH. =        2401.9329
     GHOST-NODE FLUX =    12633258.0000       GHOST-NODE FLUX =        8528.1094

           TOTAL OUT =    46645424.0000             TOTAL OUT =       60862.7109

            IN - OUT =           0.0000              IN - OUT =       3.5156E-02

 PERCENT DISCREPANCY =           0.00     PERCENT DISCREPANCY =           0.00






          TIME SUMMARY AT END OF TIME STEP     2 IN STRESS PERIOD     20
                    SECONDS     MINUTES      HOURS       DAYS        YEARS
                    -----------------------------------------------------------
   TIME STEP LENGTH 1.31414E+06  21902.      365.04      15.210     4.16427E-02
 STRESS PERIOD TIME 2.62829E+06  43805.      730.08      30.420     8.32854E-02
         TOTAL TIME 5.25658E+07 8.76096E+05  14602.      608.40      1.6657    
1
1
                            STRESS PERIOD NO.     21, LENGTH =   30.42000    
                            -----------------------------------------------

                              NUMBER OF TIME STEPS =     2

                               MULTIPLIER FOR DELT =     1.000

                            INITIAL TIME STEP SIZE =   15.21000    

 REUSING NON-PARAMETER GHB CELLS FROM LAST STRESS PERIOD

     92 GHB CELLS

 REUSING STREAM SEGMENT DATA FROM LAST STRESS PERIOD

 REUSING MNW7  FROM LAST STRESS PERIOD

 Parameter:  WELLS1
 WELL NO. LAYER    ROW    COL  F-WELL ID    FARM ID         QMAX         QMAXRESET       
 ----------------------------------------------------------------------------------------
       1      1      5      6          1          1      5.0000E+03              0
       2      1      8      7          2          1      5.0000E+03              0
       3      1      8      9          3          1      5.0000E+03              0
       4      1      5      9          4          2      3.0000E+03              0
       5      1      6     10          5          2      2.0000E+03              0
       6      1      7     11          6          2      1.0000E+03              0
       7      1     18      3          7          3      2.0000E+03              0
       8      1     21      3          8          3      4.0000E+03              0
       9      1     18     19          9          4      3.0000E+03              0
      10      1     21     19         10          4      5.0000E+03              0
      11      0      6      2        -11          5      5.0000E+03              1
      12      0      8      2        -12          5      5.0000E+03              1
      13      0     10      2        -13          5      5.0000E+03              1
      14      0      3     19        -14          6      1.0000E+04              1
      15      0      6     17        -15          6      6.0000E+03              1

 NUMBER OF ACTIVE FARM WELLS:       15

 THE SINGLE LAYER FMP- OR MNW- WELL IN ROW      8 AND COLUMN      7 IS LOCATED IN AN INACTIVE CELL (IBOUND=0) AND HAS BEEN EXCLUDED FROM THE TOTAL MAXIMUM CAPACITY PER FARM

 THE SINGLE LAYER FMP- OR MNW- WELL IN ROW      8 AND COLUMN      9 IS LOCATED IN AN INACTIVE CELL (IBOUND=0) AND HAS BEEN EXCLUDED FROM THE TOTAL MAXIMUM CAPACITY PER FARM

 THE SINGLE LAYER FMP- OR MNW- WELL IN ROW      6 AND COLUMN     10 IS LOCATED IN AN INACTIVE CELL (IBOUND=0) AND HAS BEEN EXCLUDED FROM THE TOTAL MAXIMUM CAPACITY PER FARM

 THE SINGLE LAYER FMP- OR MNW- WELL IN ROW      7 AND COLUMN     11 IS LOCATED IN AN INACTIVE CELL (IBOUND=0) AND HAS BEEN EXCLUDED FROM THE TOTAL MAXIMUM CAPACITY PER FARM

 FARM-ID  NUMBER OF WELLS PER FARM  TOTAL MAX.CAPACITY PER FARM
       1                         1                    5000.0000
       2                         1                    3000.0000
       3                         2                    6000.0000
       4                         2                    8000.0000
       5                         3                   15000.0000
       6                         2                   16000.0000
       7                         0                       0.0000
       8                         0                       0.0000

 READING LIST ON UNIT   20 WITH FILE NAME: C:\MF_OWHM_Release_Package\MF_OWHM_v1_0\examples\test-run-owhm-lgr\fmp-lgr-nwt\DATA_FMP\OFE.in
 LIST SCALING FACTOR= 0.95000    
 (THE SCALE FACTOR WAS APPLIED TO FIELDS   2 -   7)

 Reading list on unit   30

 Reading list on unit   40

  REF. EVAPOTRANSPIRATION =  4.840000E-03

 READING LIST ON UNIT   50 WITH FILE NAME: C:\MF_OWHM_Release_Package\MF_OWHM_v1_0\examples\test-run-owhm-lgr\fmp-lgr-nwt\DATA_FMP\FTE.in

Transpiratory and Evaporative Fractions of Crop Consumptive Use
    % Transpiration % Evap. for Precip. % Evap. for Irrig.
    1          0.000          1.000          0.500
    2          0.950          0.050          0.050
    3          0.661          0.339          0.339
    4          0.125          0.875          0.875
    5          0.927          0.073          0.000
    6          0.500          0.500          0.000

 READING LIST ON UNIT   60 WITH FILE NAME: C:\MF_OWHM_Release_Package\MF_OWHM_v1_0\examples\test-run-owhm-lgr\fmp-lgr-nwt\DATA_FMP\INEFFSW.in

FRACTIONS OF IN-EFFICIENT LOSSES TO SW-RUNOFF FROM 
     PRECIPITATION:  IRRIGATION:
    1          0.500          0.600
    2          0.400          0.300
    3          0.600          0.500
    4          0.700          0.600
    5          0.500          0.000
    6          0.300          0.000

       PRECIPITATION FLUX =  8.000000E-05

 OPENING FILE WITH FILENAME: ./DATA_FMP/NRDV.in
 AND UNIT NUMBER: -167
 READING SCALE FACTOR LIST ON UNIT   80 ASSOCIATED WITH FILE: C:\MF_OWHM_Release_Package\MF_OWHM_v1_0\examples\test-run-owhm-lgr\fmp-lgr-nwt\DATA_FMP\NRDV.in
 FIELD     SCALE FACTOR
     1       1.0000    
     2       4.0000    
     3       1.0000    
     4       1.0000    

UNRANKED LIST OF NON-ROUTED DELIVERIES TO FARMS [L3]:
TYPE:             1

FARM-ID  VOLUME:
      1   6.000E+04
      2   6.000E+04
      3   8.000E+04
      4   4.000E+04
      5   4.000E+04
      6   8.000E+04
      7   0.000E+00
      8   0.000E+00

FARM-ID  PRIORITY RANK OF NRD-TYPE:
      1           1
      2           1
      3           1
      4           1
      5           1
      6           1
      7           1
      8           1

FARM-ID  USE-FLAG:
         0 = SUFFICIENT USE
         1 = ABSOLUTE USE (RECHARGE SURPLUS BACK INTO CANAL)
         2 = ABSOLUTE USE (INJECT SURPLUS INTO FARM-WELLS)
      1           0
      2           0
      3           0
      4           0
      5           0
      6           0
      7           0
      8           0

LIST OF NON-ROUTED DELIVERIES IN RANKED SEQUENCE [L3/T]:

FARM-ID  RATE:
      1   1.972E+03
      2   1.972E+03
      3   2.630E+03
      4   1.315E+03
      5   1.315E+03
      6   2.630E+03
      7   0.000E+00
      8   0.000E+00

FARM-ID  USE-FLAG:
         0 = SUFFICIENT USE
         1 = ABSOLUTE USE (RECHARGE SURPLUS BACK INTO CANAL)
         2 = ABSOLUTE USE (INJECT SURPLUS INTO FARM-WELLS)
      1           0
      2           0
      3           0
      4           0
      5           0
      6           0
      7           0
      8           0

SURFACE-WATER FARM ALLOTMENT HEIGHT [L]:   0.019
 
 SOLVING FOR HEAD 
                                                   Max.-Head-Change                        Max.-Flux-Residual
  Residual-Control   Outer-Iter.   Inner-Iter.     Column Row Layer    Max.-Head-Change    Column Row Layer    Max.-Flux-Residual            L2-New               L2-Old           Solver-Max-Delh
          0                 1           9             6    5     1       0.2099223897E+01       6    5    1       0.4925361771E+04      0.8269716598E+04      0.1249167551E+00      0.2099223897E+01
          1                 1           0             6    5     1       0.1469456703E+01       6    5    1      -0.5530904880E+04      0.1027819469E+05      0.8269716598E+04      0.2099223897E+01
          0                 2           8            19   21     1      -0.1998222333E+01      19   21    1      -0.4368988277E+04      0.7710952409E+04      0.1027819469E+05     -0.1998222333E+01
          0                 3           6            19   21     1      -0.1163437806E+00      12   10    1      -0.3077899488E+03      0.7033108381E+03      0.7710952409E+04     -0.1163437806E+00
          0                 4           6            12   10     1      -0.1891468680E-01      12   10    1      -0.5566574273E+02      0.7852610109E+02      0.7033108381E+03     -0.1891468680E-01
          0                 5           5            12   16     1      -0.5273714457E-02      12   16    1      -0.1521186071E+02      0.1851639416E+02      0.7852610109E+02     -0.5273714457E-02
          0                 6           4            12   16     1      -0.2019724083E-02      12   16    1      -0.6044591065E+01      0.6474302161E+01      0.1851639416E+02     -0.2019724083E-02
          0                 7           4            12   16     1      -0.6773268819E-03      12   16    1      -0.2055655837E+01      0.2139284129E+01      0.6474302161E+01     -0.6773268819E-03
          0                 8           3            12   16     1      -0.2138214444E-03      12   16    1      -0.6547668523E+00      0.6763799132E+00      0.2139284129E+01     -0.2138214444E-03
          0                 9           3            12   16     1      -0.6561501789E-04      12   16    1      -0.2011509153E+00      0.2082497224E+00      0.6763799132E+00     -0.6561501789E-04

    ------------------------------------------------
       NWT REQUIRED            9 OUTER ITERATIONS 
       AND A TOTAL OF         48 INNER ITERATIONS.
    ------------------------------------------------
                                                   Max.-Head-Change                        Max.-Flux-Residual
  Residual-Control   Outer-Iter.   Inner-Iter.     Column Row Layer    Max.-Head-Change    Column Row Layer    Max.-Flux-Residual            L2-New               L2-Old           Solver-Max-Delh
          0                 1           8             9   10     1      -0.7321029501E+00      12   10    1      -0.8464696104E+03      0.1546078179E+04      0.2082497224E+00     -0.7321029501E+00
          0                 2           6             9   10     1       0.6113243005E-01       8   10    1       0.7295755672E+02      0.1455723051E+03      0.1546078179E+04      0.6113243005E-01
          0                 3           5            12   13     1      -0.1064812359E-01      12   13    1      -0.3251409863E+02      0.3381215535E+02      0.1455723051E+03     -0.1064812359E-01
          0                 4           4            19    3     3       0.6803961920E-03      11   14    1      -0.1477245346E+01      0.2599150893E+01      0.3381215535E+02      0.6803961920E-03
          0                 5           3            19    3     3       0.1615820989E-03      11   14    1      -0.2412050188E+00      0.3869570540E+00      0.2599150893E+01      0.1615820989E-03
          0                 6           2            19    3     3       0.3796673689E-04      11   14    1      -0.4150063253E-01      0.7167840046E-01      0.3869570540E+00      0.3796673689E-04

    ------------------------------------------------
       NWT REQUIRED            6 OUTER ITERATIONS 
       AND A TOTAL OF         28 INNER ITERATIONS.
    ------------------------------------------------
                                                   Max.-Head-Change                        Max.-Flux-Residual
  Residual-Control   Outer-Iter.   Inner-Iter.     Column Row Layer    Max.-Head-Change    Column Row Layer    Max.-Flux-Residual            L2-New               L2-Old           Solver-Max-Delh
          0                 1           6             9    9     1       0.7967417403E-01       9    9    1       0.8434322706E+02      0.1324662094E+03      0.7167840046E-01      0.7967417403E-01
          0                 2           5            12   13     1      -0.7673912071E-02      12   13    1      -0.2367752807E+02      0.2719231254E+02      0.1324662094E+03     -0.7673912071E-02
          0                 3           3             9    9     1      -0.3519460760E-03      12   13    1       0.7036344103E+00      0.1053631408E+01      0.2719231254E+02     -0.3519460760E-03
          0                 4           2            19    3     3       0.6261303550E-04      12   13    1       0.8040777303E-01      0.1033726523E+00      0.1053631408E+01      0.6261303550E-04

    ------------------------------------------------
       NWT REQUIRED            4 OUTER ITERATIONS 
       AND A TOTAL OF         16 INNER ITERATIONS.
    ------------------------------------------------
                                                   Max.-Head-Change                        Max.-Flux-Residual
  Residual-Control   Outer-Iter.   Inner-Iter.     Column Row Layer    Max.-Head-Change    Column Row Layer    Max.-Flux-Residual            L2-New               L2-Old           Solver-Max-Delh
          0                 1           6             9    9     1       0.8163406742E-01       9    9    1       0.7387732072E+02      0.1053958753E+03      0.1033726523E+00      0.8163406742E-01
          0                 2           5             9    9     1      -0.7098576396E-02      12   13    1      -0.1350336290E+02      0.1716964338E+02      0.1053958753E+03     -0.7098576396E-02
          0                 3           4             9    9     1      -0.3568307410E-03      12   13    1       0.4059062742E+00      0.7529386378E+00      0.1716964338E+02     -0.3568307410E-03
          0                 4           2             9    9     1      -0.1794373717E-04      12   13    1       0.4336949170E-01      0.6893911889E-01      0.7529386378E+00     -0.1794373717E-04

    ------------------------------------------------
       NWT REQUIRED            4 OUTER ITERATIONS 
       AND A TOTAL OF         17 INNER ITERATIONS.
    ------------------------------------------------
                                                   Max.-Head-Change                        Max.-Flux-Residual
  Residual-Control   Outer-Iter.   Inner-Iter.     Column Row Layer    Max.-Head-Change    Column Row Layer    Max.-Flux-Residual            L2-New               L2-Old           Solver-Max-Delh
          0                 1           6             9    9     1       0.3929263646E-01       9    9    1       0.3147265486E+02      0.5410196016E+02      0.6893911889E-01      0.3929263646E-01
          0                 2           5             9    9     1      -0.3411549838E-02      12   13    1      -0.6102209759E+01      0.8169307366E+01      0.5410196016E+02     -0.3411549838E-02
          0                 3           3             9    9     1      -0.1721239307E-03      12   13    1       0.1868641975E+00      0.3685099367E+00      0.8169307366E+01     -0.1721239307E-03
          0                 4           2             9    9     1      -0.8771735040E-05      12   13    1       0.1928987016E-01      0.3563441530E-01      0.3685099367E+00     -0.8771735040E-05

    ------------------------------------------------
       NWT REQUIRED            4 OUTER ITERATIONS 
       AND A TOTAL OF         16 INNER ITERATIONS.
    ------------------------------------------------
                                                   Max.-Head-Change                        Max.-Flux-Residual
  Residual-Control   Outer-Iter.   Inner-Iter.     Column Row Layer    Max.-Head-Change    Column Row Layer    Max.-Flux-Residual            L2-New               L2-Old           Solver-Max-Delh
          0                 1           5             8    9     1       0.1002118134E-01       7    9    1       0.9166383050E+01      0.2111927584E+02      0.3563441530E-01      0.1002118134E-01
          0                 2           4             8    9     1      -0.8698265404E-03      12   13    1      -0.2009166112E+01      0.2918771959E+01      0.2111927584E+02     -0.8698265404E-03
          0                 3           3             8    9     1      -0.4358128844E-04      12   13    1       0.8852830122E-01      0.1759798864E+00      0.2918771959E+01     -0.4358128844E-04

    ------------------------------------------------
       NWT REQUIRED            3 OUTER ITERATIONS 
       AND A TOTAL OF         12 INNER ITERATIONS.
    ------------------------------------------------
                                                   Max.-Head-Change                        Max.-Flux-Residual
  Residual-Control   Outer-Iter.   Inner-Iter.     Column Row Layer    Max.-Head-Change    Column Row Layer    Max.-Flux-Residual            L2-New               L2-Old           Solver-Max-Delh
          0                 1           5             9    9     2      -0.4765435374E-02       9    9    1      -0.6302591458E+01      0.1087863633E+02      0.1759798864E+00     -0.4765435374E-02
          0                 2           4             9    9     2       0.4110048830E-03       9    9    1       0.6303749776E+00      0.1123081601E+01      0.1087863633E+02      0.4110048830E-03
          0                 3           2             9    9     2       0.2022436956E-04       9    9    1       0.3123875108E-01      0.6133230472E-01      0.1123081601E+01      0.2022436956E-04

    ------------------------------------------------
       NWT REQUIRED            3 OUTER ITERATIONS 
       AND A TOTAL OF         11 INNER ITERATIONS.
    ------------------------------------------------
                                                   Max.-Head-Change                        Max.-Flux-Residual
  Residual-Control   Outer-Iter.   Inner-Iter.     Column Row Layer    Max.-Head-Change    Column Row Layer    Max.-Flux-Residual            L2-New               L2-Old           Solver-Max-Delh
          0                 1           5             9    9     2      -0.4972598385E-02       9    9    1      -0.5928905022E+01      0.7083429429E+01      0.6133230472E-01     -0.4972598385E-02
          0                 2           4             9    9     2       0.4301785569E-03       9    9    1       0.5930427657E+00      0.7419106950E+00      0.7083429429E+01      0.4301785569E-03
          0                 3           2             9    9     2       0.2135210826E-04       9    9    1       0.2944648438E-01      0.4061153958E-01      0.7419106950E+00      0.2135210826E-04

    ------------------------------------------------
       NWT REQUIRED            3 OUTER ITERATIONS 
       AND A TOTAL OF         11 INNER ITERATIONS.
    ------------------------------------------------
                                                   Max.-Head-Change                        Max.-Flux-Residual
  Residual-Control   Outer-Iter.   Inner-Iter.     Column Row Layer    Max.-Head-Change    Column Row Layer    Max.-Flux-Residual            L2-New               L2-Old           Solver-Max-Delh
          0                 1           4             9    9     1      -0.2526284266E-02       9    9    1      -0.3015648116E+01      0.3498454305E+01      0.4061153958E-01     -0.2526284266E-02
          0                 2           3             9    9     1       0.2189755081E-03       9    9    1       0.3015468924E+00      0.4244451865E+00      0.3498454305E+01      0.2189755081E-03
          0                 3           2             9    9     1       0.1112839900E-04       9    9    1       0.1522563392E-01      0.2607319063E-01      0.4244451865E+00      0.1112839900E-04

    ------------------------------------------------
       NWT REQUIRED            3 OUTER ITERATIONS 
       AND A TOTAL OF          9 INNER ITERATIONS.
    ------------------------------------------------
                                                   Max.-Head-Change                        Max.-Flux-Residual
  Residual-Control   Outer-Iter.   Inner-Iter.     Column Row Layer    Max.-Head-Change    Column Row Layer    Max.-Flux-Residual            L2-New               L2-Old           Solver-Max-Delh
          0                 1           4             9    9     1      -0.6724907629E-03       9    9    1      -0.8166498084E+00      0.1163350067E+01      0.2607319063E-01     -0.6724907629E-03
          0                 2           2             9    9     1       0.5804792926E-04      12   13    1       0.1482648201E+00      0.1899255528E+00      0.1163350067E+01      0.5804792926E-04

    ------------------------------------------------
       NWT REQUIRED            2 OUTER ITERATIONS 
       AND A TOTAL OF          6 INNER ITERATIONS.
    ------------------------------------------------
                                                   Max.-Head-Change                        Max.-Flux-Residual
  Residual-Control   Outer-Iter.   Inner-Iter.     Column Row Layer    Max.-Head-Change    Column Row Layer    Max.-Flux-Residual            L2-New               L2-Old           Solver-Max-Delh
          0                 1           3             9    9     3       0.3410162481E-03      11   11    1       0.2488747757E+00      0.4561757855E+00      0.1899255528E+00      0.3410162481E-03
          0                 2           2             9    9     3      -0.2829227970E-04      12   13    1       0.7702580583E-01      0.9168752490E-01      0.4561757855E+00     -0.2829227970E-04

    ------------------------------------------------
       NWT REQUIRED            2 OUTER ITERATIONS 
       AND A TOTAL OF          5 INNER ITERATIONS.
    ------------------------------------------------

 OUTPUT CONTROL FOR STRESS PERIOD     21   TIME STEP     1
    SAVE BUDGET
 UBDSV1 SAVING "         STORAGE" ON UNIT  70 AT TIME STEP    1, STRESS PERIOD  21
 UBDSV2 SAVING "   CONSTANT HEAD" ON UNIT  70 AT TIME STEP    1, STRESS PERIOD  21
 UBDSV1 SAVING "FLOW RIGHT FACE " ON UNIT  70 AT TIME STEP    1, STRESS PERIOD  21
 UBDSV1 SAVING "FLOW FRONT FACE " ON UNIT  70 AT TIME STEP    1, STRESS PERIOD  21
 UBDSV1 SAVING "FLOW LOWER FACE " ON UNIT  70 AT TIME STEP    1, STRESS PERIOD  21
 UBDSV4 SAVING " HEAD DEP BOUNDS" ON UNIT  70 AT TIME STEP    1, STRESS PERIOD  21
 UBDSV4 SAVING "  STREAM LEAKAGE" ON UNIT  70 AT TIME STEP    1, STRESS PERIOD  21



 UBDSV4 SAVING "             MNW" ON UNIT  70 AT TIME STEP    1, STRESS PERIOD  21
 
 
 
 
 
 
 
 
 UBDSV3 SAVING "FARM  NET  RECH." ON UNIT  70 AT TIME STEP    1, STRESS PERIOD  21
 UBDSV4 SAVING " GHOST-NODE FLUX" ON UNIT  70 AT TIME STEP    1, STRESS PERIOD  21
 UBDSV4 SAVING " GHOST-NODE FLUX" ON UNIT  70 AT TIME STEP    1, STRESS PERIOD  21
 UBDSV4 SAVING " GHOST-NODE FLUX" ON UNIT  70 AT TIME STEP    1, STRESS PERIOD  21
 
 SOLVING FOR HEAD 
                                                   Max.-Head-Change                        Max.-Flux-Residual
  Residual-Control   Outer-Iter.   Inner-Iter.     Column Row Layer    Max.-Head-Change    Column Row Layer    Max.-Flux-Residual            L2-New               L2-Old           Solver-Max-Delh
          0                 1           8             9   10     1       0.6232787300E+00      12   10    1       0.8998696476E+03      0.2164919381E+04      0.9168752490E-01      0.6232787300E+00
          0                 2           7            12   10     1      -0.7598435601E-01      11   16    1      -0.3052850104E+03      0.5199094249E+03      0.2164919381E+04     -0.7598435601E-01
          0                 3           6            12   16     1      -0.3412397851E-01      12   16    1      -0.9143444321E+02      0.1128348319E+03      0.5199094249E+03     -0.3412397851E-01
          0                 4           5            12   16     1      -0.6826764200E-02      12   16    1      -0.1821616071E+02      0.1992694608E+02      0.1128348319E+03     -0.6826764200E-02
          0                 5           4            12   16     1      -0.1291627864E-02      12   16    1      -0.3446000797E+01      0.4010802057E+01      0.1992694608E+02     -0.1291627864E-02
          0                 6           3            19    3     3       0.2694005360E-03      12   16    1      -0.6434870156E+00      0.8786020815E+00      0.4010802057E+01      0.2694005360E-03
          0                 7           3            19    3     3       0.6473971834E-04      12   16    1      -0.1192994188E+00      0.2129340261E+00      0.8786020815E+00      0.6473971834E-04

    ------------------------------------------------
       NWT REQUIRED            7 OUTER ITERATIONS 
       AND A TOTAL OF         36 INNER ITERATIONS.
    ------------------------------------------------
                                                   Max.-Head-Change                        Max.-Flux-Residual
  Residual-Control   Outer-Iter.   Inner-Iter.     Column Row Layer    Max.-Head-Change    Column Row Layer    Max.-Flux-Residual            L2-New               L2-Old           Solver-Max-Delh
          0                 1           8             9   10     1      -0.7535897779E+00      12   10    1      -0.8118131518E+03      0.1533783292E+04      0.2129340261E+00     -0.7535897779E+00
          0                 2           6             9   10     1       0.6294181736E-01       8   10    1       0.7291772337E+02      0.1416781921E+03      0.1533783292E+04      0.6294181736E-01
          0                 3           5             9   10     1       0.3122416962E-02      12   10    1       0.5315190185E+01      0.8625876295E+01      0.1416781921E+03      0.3122416962E-02
          0                 4           3            19    3     3       0.4422845345E-03      12   10    1       0.2652812167E+00      0.5713964986E+00      0.8625876295E+01      0.4422845345E-03
          0                 5           2            19    3     3       0.1037377879E-03       2   10    1       0.5008790165E-01      0.9769585428E-01      0.5713964986E+00      0.1037377879E-03
          0                 6           2            19    3     3       0.2575054285E-04       2    8    1       0.1540368714E-01      0.3039241963E-01      0.9769585428E-01      0.2575054285E-04

    ------------------------------------------------
       NWT REQUIRED            6 OUTER ITERATIONS 
       AND A TOTAL OF         26 INNER ITERATIONS.
    ------------------------------------------------
                                                   Max.-Head-Change                        Max.-Flux-Residual
  Residual-Control   Outer-Iter.   Inner-Iter.     Column Row Layer    Max.-Head-Change    Column Row Layer    Max.-Flux-Residual            L2-New               L2-Old           Solver-Max-Delh
          0                 1           6             9    9     1       0.1104135067E+00       9    9    1       0.1187464604E+03      0.1922780286E+03      0.3039241963E-01      0.1104135067E+00
          0                 2           5             9    9     1      -0.9564215364E-02       9    9    1      -0.1192044005E+02      0.1937261869E+02      0.1922780286E+03     -0.9564215364E-02
          0                 3           4             9    9     1      -0.4780238312E-03       9    9    1      -0.5958699990E+00      0.9898955450E+00      0.1937261869E+02     -0.4780238312E-03
          0                 4           2            19    3     3       0.4065013973E-04       2    8    1      -0.3412663622E-01      0.7568595985E-01      0.9898955450E+00      0.4065013973E-04

    ------------------------------------------------
       NWT REQUIRED            4 OUTER ITERATIONS 
       AND A TOTAL OF         17 INNER ITERATIONS.
    ------------------------------------------------
                                                   Max.-Head-Change                        Max.-Flux-Residual
  Residual-Control   Outer-Iter.   Inner-Iter.     Column Row Layer    Max.-Head-Change    Column Row Layer    Max.-Flux-Residual            L2-New               L2-Old           Solver-Max-Delh
          0                 1           6             9    9     1       0.9119499876E-01       9    9    1       0.8502500514E+02      0.1251305857E+03      0.7568595985E-01      0.9119499876E-01
          0                 2           5             9    9     1      -0.7897379340E-02       9    9    1      -0.8540844758E+01      0.1258328936E+02      0.1251305857E+03     -0.7897379340E-02
          0                 3           4             9    9     1      -0.3951579424E-03       9    9    1      -0.4273389791E+00      0.6401133714E+00      0.1258328936E+02     -0.3951579424E-03
          0                 4           2             9    9     1      -0.1950664880E-04       9    9    1      -0.2129191230E-01      0.4855811266E-01      0.6401133714E+00     -0.1950664880E-04

    ------------------------------------------------
       NWT REQUIRED            4 OUTER ITERATIONS 
       AND A TOTAL OF         17 INNER ITERATIONS.
    ------------------------------------------------
                                                   Max.-Head-Change                        Max.-Flux-Residual
  Residual-Control   Outer-Iter.   Inner-Iter.     Column Row Layer    Max.-Head-Change    Column Row Layer    Max.-Flux-Residual            L2-New               L2-Old           Solver-Max-Delh
          0                 1           6             9    9     1       0.3948147412E-01       9    9    1       0.3213783057E+02      0.5747581537E+02      0.4855811266E-01      0.3948147412E-01
          0                 2           5             9    9     1      -0.3414335658E-02       9    9    1      -0.3220205965E+01      0.5765381568E+01      0.5747581537E+02     -0.3414335658E-02
          0                 3           3             9    9     1      -0.1709692180E-03       9    9    1      -0.1613298149E+00      0.2937104714E+00      0.5765381568E+01     -0.1709692180E-03
          0                 4           2             9    9     1      -0.8209035630E-05       2    8    1      -0.1063100912E-01      0.2504600865E-01      0.2937104714E+00     -0.8209035630E-05

    ------------------------------------------------
       NWT REQUIRED            4 OUTER ITERATIONS 
       AND A TOTAL OF         16 INNER ITERATIONS.
    ------------------------------------------------
                                                   Max.-Head-Change                        Max.-Flux-Residual
  Residual-Control   Outer-Iter.   Inner-Iter.     Column Row Layer    Max.-Head-Change    Column Row Layer    Max.-Flux-Residual            L2-New               L2-Old           Solver-Max-Delh
          0                 1           5             8    9     1       0.8987144392E-02       7    9    1       0.9651024746E+01      0.2054550339E+02      0.2504600865E-01      0.8987144392E-02
          0                 2           4             8    9     1      -0.7764337550E-03       7    9    1      -0.9648916980E+00      0.2055568921E+01      0.2054550339E+02     -0.7764337550E-03
          0                 3           3             8    9     1      -0.3926333344E-04       7    9    1      -0.4855924158E-01      0.1073641795E+00      0.2055568921E+01     -0.3926333344E-04

    ------------------------------------------------
       NWT REQUIRED            3 OUTER ITERATIONS 
       AND A TOTAL OF         12 INNER ITERATIONS.
    ------------------------------------------------
                                                   Max.-Head-Change                        Max.-Flux-Residual
  Residual-Control   Outer-Iter.   Inner-Iter.     Column Row Layer    Max.-Head-Change    Column Row Layer    Max.-Flux-Residual            L2-New               L2-Old           Solver-Max-Delh
          0                 1           5             9    9     2      -0.6101573777E-02       9    9    1      -0.7956674708E+01      0.1134664771E+02      0.1073641795E+00     -0.6101573777E-02
          0                 2           4             9    9     2       0.5274845632E-03       9    9    1       0.7957996631E+00      0.1135790844E+01      0.1134664771E+02      0.5274845632E-03
          0                 3           2             9    9     2       0.2605892209E-04       9    9    1       0.3955808416E-01      0.5904544538E-01      0.1135790844E+01      0.2605892209E-04

    ------------------------------------------------
       NWT REQUIRED            3 OUTER ITERATIONS 
       AND A TOTAL OF         11 INNER ITERATIONS.
    ------------------------------------------------
                                                   Max.-Head-Change                        Max.-Flux-Residual
  Residual-Control   Outer-Iter.   Inner-Iter.     Column Row Layer    Max.-Head-Change    Column Row Layer    Max.-Flux-Residual            L2-New               L2-Old           Solver-Max-Delh
          0                 1           5             9    9     2      -0.5300769464E-02       9    9    1      -0.6660535612E+01      0.7600897482E+01      0.5904544538E-01     -0.5300769464E-02
          0                 2           4             9    9     2       0.4585069787E-03       9    9    1       0.6662772224E+00      0.7621573650E+00      0.7600897482E+01      0.4585069787E-03
          0                 3           2             9    9     1       0.2261250615E-04       9    9    1       0.3341980526E-01      0.4186475504E-01      0.7621573650E+00      0.2261250615E-04

    ------------------------------------------------
       NWT REQUIRED            3 OUTER ITERATIONS 
       AND A TOTAL OF         11 INNER ITERATIONS.
    ------------------------------------------------
                                                   Max.-Head-Change                        Max.-Flux-Residual
  Residual-Control   Outer-Iter.   Inner-Iter.     Column Row Layer    Max.-Head-Change    Column Row Layer    Max.-Flux-Residual            L2-New               L2-Old           Solver-Max-Delh
          0                 1           4             9    9     1      -0.2593574186E-02       9    9    1      -0.3179925544E+01      0.3721343856E+01      0.4186475504E-01     -0.2593574186E-02
          0                 2           3             9    9     1       0.2242277504E-03       9    9    1       0.3178557990E+00      0.3739086548E+00      0.3721343856E+01      0.2242277504E-03
          0                 3           2             9    9     1       0.1135929188E-04       9    9    1       0.1630149633E-01      0.2353073265E-01      0.3739086548E+00      0.1135929188E-04

    ------------------------------------------------
       NWT REQUIRED            3 OUTER ITERATIONS 
       AND A TOTAL OF          9 INNER ITERATIONS.
    ------------------------------------------------
                                                   Max.-Head-Change                        Max.-Flux-Residual
  Residual-Control   Outer-Iter.   Inner-Iter.     Column Row Layer    Max.-Head-Change    Column Row Layer    Max.-Flux-Residual            L2-New               L2-Old           Solver-Max-Delh
          0                 1           4             9    9     1      -0.5770578169E-03       9    9    1      -0.7842183062E+00      0.1331763439E+01      0.2353073265E-01     -0.5770578169E-03
          0                 2           2             9    9     1       0.5038489077E-04       9    9    1       0.7862498023E-01      0.1357984419E+00      0.1331763439E+01      0.5038489077E-04

    ------------------------------------------------
       NWT REQUIRED            2 OUTER ITERATIONS 
       AND A TOTAL OF          6 INNER ITERATIONS.
    ------------------------------------------------
                                                   Max.-Head-Change                        Max.-Flux-Residual
  Residual-Control   Outer-Iter.   Inner-Iter.     Column Row Layer    Max.-Head-Change    Column Row Layer    Max.-Flux-Residual            L2-New               L2-Old           Solver-Max-Delh
          0                 1           3             9    9     2       0.4135918111E-03      10   11    1       0.3085647668E+00      0.6452091510E+00      0.1357984419E+00      0.4135918111E-03
          0                 2           2             9    9     2      -0.3541635116E-04      10   11    1      -0.3113544174E-01      0.6626108615E-01      0.6452091510E+00     -0.3541635116E-04

    ------------------------------------------------
       NWT REQUIRED            2 OUTER ITERATIONS 
       AND A TOTAL OF          5 INNER ITERATIONS.
    ------------------------------------------------

 OUTPUT CONTROL FOR STRESS PERIOD     21   TIME STEP     2
    PRINT BUDGET
    SAVE HEAD FOR ALL LAYERS
    SAVE BUDGET
 UBDSV1 SAVING "         STORAGE" ON UNIT  70 AT TIME STEP    2, STRESS PERIOD  21
 UBDSV2 SAVING "   CONSTANT HEAD" ON UNIT  70 AT TIME STEP    2, STRESS PERIOD  21
 UBDSV1 SAVING "FLOW RIGHT FACE " ON UNIT  70 AT TIME STEP    2, STRESS PERIOD  21
 UBDSV1 SAVING "FLOW FRONT FACE " ON UNIT  70 AT TIME STEP    2, STRESS PERIOD  21
 UBDSV1 SAVING "FLOW LOWER FACE " ON UNIT  70 AT TIME STEP    2, STRESS PERIOD  21
 UBDSV4 SAVING " HEAD DEP BOUNDS" ON UNIT  70 AT TIME STEP    2, STRESS PERIOD  21
 UBDSV4 SAVING "  STREAM LEAKAGE" ON UNIT  70 AT TIME STEP    2, STRESS PERIOD  21



 UBDSV4 SAVING "             MNW" ON UNIT  70 AT TIME STEP    2, STRESS PERIOD  21
 
 
 
 
 
 
 
 
 UBDSV3 SAVING "FARM  NET  RECH." ON UNIT  70 AT TIME STEP    2, STRESS PERIOD  21
 UBDSV4 SAVING " GHOST-NODE FLUX" ON UNIT  70 AT TIME STEP    2, STRESS PERIOD  21
 UBDSV4 SAVING " GHOST-NODE FLUX" ON UNIT  70 AT TIME STEP    2, STRESS PERIOD  21
 UBDSV4 SAVING " GHOST-NODE FLUX" ON UNIT  70 AT TIME STEP    2, STRESS PERIOD  21

 HEAD WILL BE SAVED ON UNIT   22 AT END OF TIME STEP     2, STRESS PERIOD     21
1
  VOLUMETRIC BUDGET FOR ENTIRE MODEL AT END OF TIME STEP    2 IN STRESS PERIOD     21
  ------------------------------------------------------------------------------

     CUMULATIVE VOLUMES      L**3       RATES FOR THIS TIME STEP      L**3/T
     ------------------                 ------------------------

           IN:                                      IN:
           ---                                      ---
             STORAGE =    17890918.0000               STORAGE =       22603.8008
       CONSTANT HEAD =           0.0000         CONSTANT HEAD =           0.0000
     HEAD DEP BOUNDS =     4745294.5000       HEAD DEP BOUNDS =        8846.8115
      STREAM LEAKAGE =    10602993.0000        STREAM LEAKAGE =       18997.3906
                 MNW =       36021.4414                   MNW =           0.0000
          FARM WELLS =           0.0000            FARM WELLS =           0.0000
    FARM  NET  RECH. =    11562184.0000      FARM  NET  RECH. =       10909.4775
     GHOST-NODE FLUX =     3898506.5000       GHOST-NODE FLUX =        6471.0273

            TOTAL IN =    48735916.0000              TOTAL IN =       67828.5078

          OUT:                                     OUT:
          ----                                     ----
             STORAGE =     8150393.0000               STORAGE =         657.8302
       CONSTANT HEAD =           0.0000         CONSTANT HEAD =           0.0000
     HEAD DEP BOUNDS =    10763099.0000       HEAD DEP BOUNDS =       15227.2559
      STREAM LEAKAGE =      701444.5000        STREAM LEAKAGE =         119.8632
                 MNW =     6934660.5000                   MNW =       21430.4648
          FARM WELLS =     6939244.0000            FARM WELLS =       19182.6328
    FARM  NET  RECH. =     2348576.7500      FARM  NET  RECH. =        2462.5933
     GHOST-NODE FLUX =    12898502.0000       GHOST-NODE FLUX =        8747.8848

           TOTAL OUT =    48735920.0000             TOTAL OUT =       67828.5234

            IN - OUT =          -4.0000              IN - OUT =      -1.5625E-02

 PERCENT DISCREPANCY =          -0.00     PERCENT DISCREPANCY =          -0.00






          TIME SUMMARY AT END OF TIME STEP     2 IN STRESS PERIOD     21
                    SECONDS     MINUTES      HOURS       DAYS        YEARS
                    -----------------------------------------------------------
   TIME STEP LENGTH 1.31414E+06  21902.      365.04      15.210     4.16427E-02
 STRESS PERIOD TIME 2.62829E+06  43805.      730.08      30.420     8.32854E-02
         TOTAL TIME 5.51941E+07 9.19901E+05  15332.      638.82      1.7490    
1
1
                            STRESS PERIOD NO.     22, LENGTH =   30.42000    
                            -----------------------------------------------

                              NUMBER OF TIME STEPS =     2

                               MULTIPLIER FOR DELT =     1.000

                            INITIAL TIME STEP SIZE =   15.21000    

 REUSING NON-PARAMETER GHB CELLS FROM LAST STRESS PERIOD

     92 GHB CELLS

 REUSING STREAM SEGMENT DATA FROM LAST STRESS PERIOD

 REUSING MNW7  FROM LAST STRESS PERIOD

 Parameter:  WELLS1
 WELL NO. LAYER    ROW    COL  F-WELL ID    FARM ID         QMAX         QMAXRESET       
 ----------------------------------------------------------------------------------------
       1      1      5      6          1          1      5.0000E+03              0
       2      1      8      7          2          1      5.0000E+03              0
       3      1      8      9          3          1      5.0000E+03              0
       4      1      5      9          4          2      3.0000E+03              0
       5      1      6     10          5          2      2.0000E+03              0
       6      1      7     11          6          2      1.0000E+03              0
       7      1     18      3          7          3      2.0000E+03              0
       8      1     21      3          8          3      4.0000E+03              0
       9      1     18     19          9          4      3.0000E+03              0
      10      1     21     19         10          4      5.0000E+03              0
      11      0      6      2        -11          5      5.0000E+03              1
      12      0      8      2        -12          5      5.0000E+03              1
      13      0     10      2        -13          5      5.0000E+03              1
      14      0      3     19        -14          6      1.0000E+04              1
      15      0      6     17        -15          6      6.0000E+03              1

 NUMBER OF ACTIVE FARM WELLS:       15

 THE SINGLE LAYER FMP- OR MNW- WELL IN ROW      8 AND COLUMN      7 IS LOCATED IN AN INACTIVE CELL (IBOUND=0) AND HAS BEEN EXCLUDED FROM THE TOTAL MAXIMUM CAPACITY PER FARM

 THE SINGLE LAYER FMP- OR MNW- WELL IN ROW      8 AND COLUMN      9 IS LOCATED IN AN INACTIVE CELL (IBOUND=0) AND HAS BEEN EXCLUDED FROM THE TOTAL MAXIMUM CAPACITY PER FARM

 THE SINGLE LAYER FMP- OR MNW- WELL IN ROW      6 AND COLUMN     10 IS LOCATED IN AN INACTIVE CELL (IBOUND=0) AND HAS BEEN EXCLUDED FROM THE TOTAL MAXIMUM CAPACITY PER FARM

 THE SINGLE LAYER FMP- OR MNW- WELL IN ROW      7 AND COLUMN     11 IS LOCATED IN AN INACTIVE CELL (IBOUND=0) AND HAS BEEN EXCLUDED FROM THE TOTAL MAXIMUM CAPACITY PER FARM

 FARM-ID  NUMBER OF WELLS PER FARM  TOTAL MAX.CAPACITY PER FARM
       1                         1                    5000.0000
       2                         1                    3000.0000
       3                         2                    6000.0000
       4                         2                    8000.0000
       5                         3                   15000.0000
       6                         2                   16000.0000
       7                         0                       0.0000
       8                         0                       0.0000

 READING LIST ON UNIT   20 WITH FILE NAME: C:\MF_OWHM_Release_Package\MF_OWHM_v1_0\examples\test-run-owhm-lgr\fmp-lgr-nwt\DATA_FMP\OFE.in
 LIST SCALING FACTOR= 0.90000    
 (THE SCALE FACTOR WAS APPLIED TO FIELDS   2 -   7)

 Reading list on unit   30

 Reading list on unit   40

  REF. EVAPOTRANSPIRATION =  3.490000E-03

 READING LIST ON UNIT   50 WITH FILE NAME: C:\MF_OWHM_Release_Package\MF_OWHM_v1_0\examples\test-run-owhm-lgr\fmp-lgr-nwt\DATA_FMP\FTE.in

Transpiratory and Evaporative Fractions of Crop Consumptive Use
    % Transpiration % Evap. for Precip. % Evap. for Irrig.
    1          0.000          1.000          0.500
    2          0.945          0.055          0.055
    3          0.894          0.106          0.106
    4          0.125          0.875          0.875
    5          0.927          0.073          0.000
    6          0.300          0.700          0.000

 READING LIST ON UNIT   60 WITH FILE NAME: C:\MF_OWHM_Release_Package\MF_OWHM_v1_0\examples\test-run-owhm-lgr\fmp-lgr-nwt\DATA_FMP\INEFFSW.in

FRACTIONS OF IN-EFFICIENT LOSSES TO SW-RUNOFF FROM 
     PRECIPITATION:  IRRIGATION:
    1          0.500          0.600
    2          0.400          0.300
    3          0.600          0.500
    4          0.700          0.600
    5          0.500          0.000
    6          0.300          0.000

       PRECIPITATION FLUX =  3.900000E-04

 OPENING FILE WITH FILENAME: ./DATA_FMP/NRDV.in
 AND UNIT NUMBER: -168
 READING SCALE FACTOR LIST ON UNIT   80 ASSOCIATED WITH FILE: C:\MF_OWHM_Release_Package\MF_OWHM_v1_0\examples\test-run-owhm-lgr\fmp-lgr-nwt\DATA_FMP\NRDV.in
 FIELD     SCALE FACTOR
     1       1.0000    
     2       3.0000    
     3       1.0000    
     4       1.0000    

UNRANKED LIST OF NON-ROUTED DELIVERIES TO FARMS [L3]:
TYPE:             1

FARM-ID  VOLUME:
      1   4.500E+04
      2   4.500E+04
      3   6.000E+04
      4   3.000E+04
      5   3.000E+04
      6   6.000E+04
      7   0.000E+00
      8   0.000E+00

FARM-ID  PRIORITY RANK OF NRD-TYPE:
      1           1
      2           1
      3           1
      4           1
      5           1
      6           1
      7           1
      8           1

FARM-ID  USE-FLAG:
         0 = SUFFICIENT USE
         1 = ABSOLUTE USE (RECHARGE SURPLUS BACK INTO CANAL)
         2 = ABSOLUTE USE (INJECT SURPLUS INTO FARM-WELLS)
      1           0
      2           0
      3           0
      4           0
      5           0
      6           0
      7           0
      8           0

LIST OF NON-ROUTED DELIVERIES IN RANKED SEQUENCE [L3/T]:

FARM-ID  RATE:
      1   1.479E+03
      2   1.479E+03
      3   1.972E+03
      4   9.862E+02
      5   9.862E+02
      6   1.972E+03
      7   0.000E+00
      8   0.000E+00

FARM-ID  USE-FLAG:
         0 = SUFFICIENT USE
         1 = ABSOLUTE USE (RECHARGE SURPLUS BACK INTO CANAL)
         2 = ABSOLUTE USE (INJECT SURPLUS INTO FARM-WELLS)
      1           0
      2           0
      3           0
      4           0
      5           0
      6           0
      7           0
      8           0

SURFACE-WATER FARM ALLOTMENT HEIGHT [L]:   0.019
 
 SOLVING FOR HEAD 
                                                   Max.-Head-Change                        Max.-Flux-Residual
  Residual-Control   Outer-Iter.   Inner-Iter.     Column Row Layer    Max.-Head-Change    Column Row Layer    Max.-Flux-Residual            L2-New               L2-Old           Solver-Max-Delh
          0                 1           9            19   21     1       0.2358183814E+01       6    5    1       0.4932335570E+04      0.8814625221E+04      0.6626108615E-01      0.2358183814E+01
          1                 1           0            19   21     1       0.1650728641E+01      19   21    1      -0.5545387244E+04      0.1035237559E+05      0.8814625221E+04      0.2358183814E+01
          0                 2           9            19    3     3       0.6957103449E+01      19   21    1      -0.3912822037E+04      0.7762611917E+04      0.1035237559E+05      0.6957103449E+01
          0                 3           8            19    3     3       0.1682146876E+01      19    3    2       0.5280474247E+03      0.9746213181E+03      0.7762611917E+04      0.1682146876E+01
          0                 4           7            19    3     3       0.4066445874E+00      19    3    2       0.1276355259E+03      0.2071638247E+03      0.9746213181E+03      0.4066445874E+00
          0                 5           6            19    3     3       0.9827113006E-01      19    3    2       0.3085909559E+02      0.4706810536E+02      0.2071638247E+03      0.9827113006E-01
          0                 6           5            19    3     3       0.2374082718E-01      19    3    2       0.7459025901E+01      0.1128249379E+02      0.4706810536E+02      0.2374082718E-01
          0                 7           5            19    3     3       0.5732641808E-02      19    3    2       0.1802296165E+01      0.2715555939E+01      0.1128249379E+02      0.5732641808E-02
          0                 8           4            19    3     3       0.1383822299E-02      19    3    2       0.4353113950E+00      0.6572570321E+00      0.2715555939E+01      0.1383822299E-02
          0                 9           3            19    3     3       0.3345182412E-03      19    3    2       0.1050885429E+00      0.1608717333E+00      0.6572570321E+00      0.3345182412E-03
          0                10           2            19    3     3       0.7894026410E-04      19    3    2       0.2540165052E-01      0.4204177358E-01      0.1608717333E+00      0.7894026410E-04

    ------------------------------------------------
       NWT REQUIRED           10 OUTER ITERATIONS 
       AND A TOTAL OF         58 INNER ITERATIONS.
    ------------------------------------------------
                                                   Max.-Head-Change                        Max.-Flux-Residual
  Residual-Control   Outer-Iter.   Inner-Iter.     Column Row Layer    Max.-Head-Change    Column Row Layer    Max.-Flux-Residual            L2-New               L2-Old           Solver-Max-Delh
          0                 1           8             9   10     1      -0.5429922282E+00       8   10    1      -0.6851550123E+03      0.1272960175E+04      0.4204177358E-01     -0.5429922282E+00
          0                 2           6             9   10     1       0.4528335918E-01       8   10    1       0.6575121421E+02      0.1230697013E+03      0.1272960175E+04      0.4528335918E-01
          0                 3           5             9   10     1       0.2245795911E-02      12   11    1       0.4880800559E+01      0.9144920229E+01      0.1230697013E+03      0.2245795911E-02
          0                 4           3             9   10     1       0.1133630639E-03      12   11    1       0.2756011119E+00      0.5538633513E+00      0.9144920229E+01      0.1133630639E-03
          0                 5           2             2    8     3       0.1373342184E-04       2   10    1       0.3044765349E-01      0.5942402759E-01      0.5538633513E+00      0.1373342184E-04

    ------------------------------------------------
       NWT REQUIRED            5 OUTER ITERATIONS 
       AND A TOTAL OF         24 INNER ITERATIONS.
    ------------------------------------------------
                                                   Max.-Head-Change                        Max.-Flux-Residual
  Residual-Control   Outer-Iter.   Inner-Iter.     Column Row Layer    Max.-Head-Change    Column Row Layer    Max.-Flux-Residual            L2-New               L2-Old           Solver-Max-Delh
          0                 1           7             9    9     1       0.1301232809E+00      12   10    1      -0.1718014368E+03      0.2721148640E+03      0.5942402759E-01      0.1301232809E+00
          0                 2           5             9    9     1      -0.1128288553E-01      12   10    1       0.1704063765E+02      0.2732854949E+02      0.2721148640E+03     -0.1128288553E-01
          0                 3           4             9    9     1      -0.5637009605E-03      12   10    1       0.8511431572E+00      0.1383013535E+01      0.2732854949E+02     -0.5637009605E-03
          0                 4           3             9    9     1      -0.2853696816E-04       2    8    1      -0.4301496909E-01      0.9567431012E-01      0.1383013535E+01     -0.2853696816E-04

    ------------------------------------------------
       NWT REQUIRED            4 OUTER ITERATIONS 
       AND A TOTAL OF         19 INNER ITERATIONS.
    ------------------------------------------------
                                                   Max.-Head-Change                        Max.-Flux-Residual
  Residual-Control   Outer-Iter.   Inner-Iter.     Column Row Layer    Max.-Head-Change    Column Row Layer    Max.-Flux-Residual            L2-New               L2-Old           Solver-Max-Delh
          0                 1           6             9    9     1       0.5580423664E-01       7    9    1       0.5084045463E+02      0.1093337264E+03      0.9567431012E-01      0.5580423664E-01
          0                 2           5             9    9     1      -0.4829071426E-02       7    9    1      -0.5094182454E+01      0.1098377755E+02      0.1093337264E+03     -0.4829071426E-02
          0                 3           3             9    9     1      -0.2416909853E-03       7    9    1      -0.2543730264E+00      0.5566790622E+00      0.1098377755E+02     -0.2416909853E-03
          0                 4           2             9    9     1      -0.1173270424E-04       2    8    1      -0.2196802746E-01      0.4436616077E-01      0.5566790622E+00     -0.1173270424E-04

    ------------------------------------------------
       NWT REQUIRED            4 OUTER ITERATIONS 
       AND A TOTAL OF         16 INNER ITERATIONS.
    ------------------------------------------------
                                                   Max.-Head-Change                        Max.-Flux-Residual
  Residual-Control   Outer-Iter.   Inner-Iter.     Column Row Layer    Max.-Head-Change    Column Row Layer    Max.-Flux-Residual            L2-New               L2-Old           Solver-Max-Delh
          0                 1           6             7    9     1       0.1876256824E-01      11   11    1      -0.2610665479E+02      0.4739671026E+02      0.4436616077E-01      0.1876256824E-01
          0                 2           5             7    9     1      -0.1621476533E-02      11   11    1       0.2607536007E+01      0.4754873560E+01      0.4739671026E+02     -0.1621476533E-02
          0                 3           3             7    9     1      -0.8127688085E-04      11   11    1       0.1303306018E+00      0.2416441797E+00      0.4754873560E+01     -0.8127688085E-04

    ------------------------------------------------
       NWT REQUIRED            3 OUTER ITERATIONS 
       AND A TOTAL OF         14 INNER ITERATIONS.
    ------------------------------------------------
                                                   Max.-Head-Change                        Max.-Flux-Residual
  Residual-Control   Outer-Iter.   Inner-Iter.     Column Row Layer    Max.-Head-Change    Column Row Layer    Max.-Flux-Residual            L2-New               L2-Old           Solver-Max-Delh
          0                 1           5             9    9     1      -0.8368455314E-02       9    9    1      -0.1348871087E+02      0.2437445800E+02      0.2416441797E+00     -0.8368455314E-02
          0                 2           4             9    9     1       0.7225935327E-03       9    9    1       0.1349100104E+01      0.2439345056E+01      0.2437445800E+02      0.7225935327E-03
          0                 3           3             9    9     1       0.3595283322E-04       9    9    1       0.6729883593E-01      0.1240986957E+00      0.2439345056E+01      0.3595283322E-04

    ------------------------------------------------
       NWT REQUIRED            3 OUTER ITERATIONS 
       AND A TOTAL OF         12 INNER ITERATIONS.
    ------------------------------------------------
                                                   Max.-Head-Change                        Max.-Flux-Residual
  Residual-Control   Outer-Iter.   Inner-Iter.     Column Row Layer    Max.-Head-Change    Column Row Layer    Max.-Flux-Residual            L2-New               L2-Old           Solver-Max-Delh
          0                 1           5             9    9     1      -0.8238683881E-02       9    9    1      -0.1053139267E+02      0.1318727886E+02      0.1240986957E+00     -0.8238683881E-02
          0                 2           4             9    9     1       0.7113932371E-03       9    9    1       0.1052641787E+01      0.1319049865E+01      0.1318727886E+02      0.7113932371E-03
          0                 3           2             9    9     1       0.3595945163E-04       9    9    1       0.5350800397E-01      0.6733839724E-01      0.1319049865E+01      0.3595945163E-04

    ------------------------------------------------
       NWT REQUIRED            3 OUTER ITERATIONS 
       AND A TOTAL OF         11 INNER ITERATIONS.
    ------------------------------------------------
                                                   Max.-Head-Change                        Max.-Flux-Residual
  Residual-Control   Outer-Iter.   Inner-Iter.     Column Row Layer    Max.-Head-Change    Column Row Layer    Max.-Flux-Residual            L2-New               L2-Old           Solver-Max-Delh
          0                 1           5             9    9     1      -0.4016519158E-02       9    9    1      -0.4836470219E+01      0.5661500651E+01      0.6733839724E-01     -0.4016519158E-02
          0                 2           3             9    9     1       0.3472992300E-03       9    9    1       0.4835879576E+00      0.5665411439E+00      0.5661500651E+01      0.3472992300E-03
          0                 3           2             9    9     1       0.1707496875E-04       9    9    1       0.2419757037E-01      0.3247730527E-01      0.5665411439E+00      0.1707496875E-04

    ------------------------------------------------
       NWT REQUIRED            3 OUTER ITERATIONS 
       AND A TOTAL OF         10 INNER ITERATIONS.
    ------------------------------------------------
                                                   Max.-Head-Change                        Max.-Flux-Residual
  Residual-Control   Outer-Iter.   Inner-Iter.     Column Row Layer    Max.-Head-Change    Column Row Layer    Max.-Flux-Residual            L2-New               L2-Old           Solver-Max-Delh
          0                 1           4             9    9     1      -0.9114953794E-03       9    9    1      -0.1089646501E+01      0.1863262616E+01      0.3247730527E-01     -0.9114953794E-03
          0                 2           3             9    9     1       0.7895018859E-04       9    9    1       0.1091400476E+00      0.1878041613E+00      0.1863262616E+01      0.7895018859E-04

    ------------------------------------------------
       NWT REQUIRED            2 OUTER ITERATIONS 
       AND A TOTAL OF          7 INNER ITERATIONS.
    ------------------------------------------------
                                                   Max.-Head-Change                        Max.-Flux-Residual
  Residual-Control   Outer-Iter.   Inner-Iter.     Column Row Layer    Max.-Head-Change    Column Row Layer    Max.-Flux-Residual            L2-New               L2-Old           Solver-Max-Delh
          0                 1           4             9    9     2       0.6023203541E-03      11   11    1       0.5935232265E+00      0.1156507899E+01      0.1878041613E+00      0.6023203541E-03
          0                 2           2             9    9     2      -0.5145314354E-04      11   11    1      -0.5943065393E-01      0.1174366105E+00      0.1156507899E+01     -0.5145314354E-04

    ------------------------------------------------
       NWT REQUIRED            2 OUTER ITERATIONS 
       AND A TOTAL OF          6 INNER ITERATIONS.
    ------------------------------------------------
                                                   Max.-Head-Change                        Max.-Flux-Residual
  Residual-Control   Outer-Iter.   Inner-Iter.     Column Row Layer    Max.-Head-Change    Column Row Layer    Max.-Flux-Residual            L2-New               L2-Old           Solver-Max-Delh
          0                 1           4             9    9     2       0.5409050185E-03       9    9    1       0.5453172387E+00      0.9110413932E+00      0.1174366105E+00      0.5409050185E-03
          0                 2           2             9    9     2      -0.4633282506E-04       9    9    1      -0.5457506300E-01      0.9287419098E-01      0.9110413932E+00     -0.4633282506E-04

    ------------------------------------------------
       NWT REQUIRED            2 OUTER ITERATIONS 
       AND A TOTAL OF          6 INNER ITERATIONS.
    ------------------------------------------------

 OUTPUT CONTROL FOR STRESS PERIOD     22   TIME STEP     1
    SAVE BUDGET
 UBDSV1 SAVING "         STORAGE" ON UNIT  70 AT TIME STEP    1, STRESS PERIOD  22
 UBDSV2 SAVING "   CONSTANT HEAD" ON UNIT  70 AT TIME STEP    1, STRESS PERIOD  22
 UBDSV1 SAVING "FLOW RIGHT FACE " ON UNIT  70 AT TIME STEP    1, STRESS PERIOD  22
 UBDSV1 SAVING "FLOW FRONT FACE " ON UNIT  70 AT TIME STEP    1, STRESS PERIOD  22
 UBDSV1 SAVING "FLOW LOWER FACE " ON UNIT  70 AT TIME STEP    1, STRESS PERIOD  22
 UBDSV4 SAVING " HEAD DEP BOUNDS" ON UNIT  70 AT TIME STEP    1, STRESS PERIOD  22
 UBDSV4 SAVING "  STREAM LEAKAGE" ON UNIT  70 AT TIME STEP    1, STRESS PERIOD  22



 UBDSV4 SAVING "             MNW" ON UNIT  70 AT TIME STEP    1, STRESS PERIOD  22
 
 
 
 
 
 
 
 
 UBDSV3 SAVING "FARM  NET  RECH." ON UNIT  70 AT TIME STEP    1, STRESS PERIOD  22
 UBDSV4 SAVING " GHOST-NODE FLUX" ON UNIT  70 AT TIME STEP    1, STRESS PERIOD  22
 UBDSV4 SAVING " GHOST-NODE FLUX" ON UNIT  70 AT TIME STEP    1, STRESS PERIOD  22
 UBDSV4 SAVING " GHOST-NODE FLUX" ON UNIT  70 AT TIME STEP    1, STRESS PERIOD  22
 
 SOLVING FOR HEAD 
                                                   Max.-Head-Change                        Max.-Flux-Residual
  Residual-Control   Outer-Iter.   Inner-Iter.     Column Row Layer    Max.-Head-Change    Column Row Layer    Max.-Flux-Residual            L2-New               L2-Old           Solver-Max-Delh
          0                 1           8            19    3     4       0.2963508043E+01      12   10    1       0.8318643350E+03      0.1700759981E+04      0.9287419098E-01      0.2963508043E+01
          0                 2           7            19    3     4      -0.4439502450E+00      12   10    1      -0.2964860346E+03      0.3444801437E+03      0.1700759981E+04     -0.4439502450E+00
          0                 3           6            19    3     4      -0.4172692195E-01      12   10    1      -0.5084389383E+02      0.5653352027E+02      0.3444801437E+03     -0.4172692195E-01
          0                 4           5            19    3     3      -0.8330963036E-02      12   10    1      -0.2867724414E+01      0.6639591501E+01      0.5653352027E+02     -0.8330963036E-02
          0                 5           4            19    3     3      -0.1981139280E-02       2    8    1       0.7309456475E+00      0.1548057670E+01      0.6639591501E+01     -0.1981139280E-02
          0                 6           3            19    3     3      -0.4765504832E-03       2    8    1       0.2275989343E+00      0.4313835599E+00      0.1548057670E+01     -0.4765504832E-03
          0                 7           3            19    3     3      -0.1146220422E-03       2    8    1       0.7028602459E-01      0.1241371236E+00      0.4313835599E+00     -0.1146220422E-03
          0                 8           2            19    3     3      -0.2718198782E-04       2    8    1       0.2142802475E-01      0.3946627654E-01      0.1241371236E+00     -0.2718198782E-04

    ------------------------------------------------
       NWT REQUIRED            8 OUTER ITERATIONS 
       AND A TOTAL OF         38 INNER ITERATIONS.
    ------------------------------------------------
                                                   Max.-Head-Change                        Max.-Flux-Residual
  Residual-Control   Outer-Iter.   Inner-Iter.     Column Row Layer    Max.-Head-Change    Column Row Layer    Max.-Flux-Residual            L2-New               L2-Old           Solver-Max-Delh
          0                 1           8             9   10     1      -0.6631720885E+00       8   10    1      -0.6851549610E+03      0.1282243106E+04      0.3946627654E-01     -0.6631720885E+00
          0                 2           6             9   10     1       0.5527023659E-01       8   10    1       0.6529505878E+02      0.1292311197E+03      0.1282243106E+04      0.5527023659E-01
          0                 3           5             9   10     1       0.2745692817E-02      12   11    1       0.3882116497E+01      0.8346731143E+01      0.1292311197E+03      0.2745692817E-02
          0                 4           3             9   10     1       0.1384121807E-03      12   12    1       0.2209382390E+00      0.5186597587E+00      0.8346731143E+01      0.1384121807E-03
          0                 5           2             2    8     3       0.1797152447E-04       2   10    1       0.3915475600E-01      0.6765576727E-01      0.5186597587E+00      0.1797152447E-04

    ------------------------------------------------
       NWT REQUIRED            5 OUTER ITERATIONS 
       AND A TOTAL OF         24 INNER ITERATIONS.
    ------------------------------------------------
                                                   Max.-Head-Change                        Max.-Flux-Residual
  Residual-Control   Outer-Iter.   Inner-Iter.     Column Row Layer    Max.-Head-Change    Column Row Layer    Max.-Flux-Residual            L2-New               L2-Old           Solver-Max-Delh
          0                 1           6            12   10     1      -0.1703445037E+00      12   10    1      -0.2917189390E+03      0.3452337269E+03      0.6765576727E-01     -0.1703445037E+00
          0                 2           5            12   10     1       0.1438354583E-01      12   10    1       0.2878286756E+02      0.3448525937E+02      0.3452337269E+03      0.1438354583E-01
          0                 3           4            12   10     1       0.7337774326E-03      12   10    1       0.1436886427E+01      0.1737699878E+01      0.3448525937E+02      0.7337774326E-03
          0                 4           3            12   10     1       0.3772642900E-04      12   10    1       0.7195152942E-01      0.1055477675E+00      0.1737699878E+01      0.3772642900E-04

    ------------------------------------------------
       NWT REQUIRED            4 OUTER ITERATIONS 
       AND A TOTAL OF         18 INNER ITERATIONS.
    ------------------------------------------------
                                                   Max.-Head-Change                        Max.-Flux-Residual
  Residual-Control   Outer-Iter.   Inner-Iter.     Column Row Layer    Max.-Head-Change    Column Row Layer    Max.-Flux-Residual            L2-New               L2-Old           Solver-Max-Delh
          0                 1           6             9    9     1       0.6712098159E-01       9    9    1       0.5997879697E+02      0.1139466946E+03      0.1055477675E+00      0.6712098159E-01
          0                 2           5             9    9     1      -0.5811131682E-02       9    9    1      -0.6017642470E+01      0.1146747574E+02      0.1139466946E+03     -0.5811131682E-02
          0                 3           3             9    9     1      -0.2905881490E-03       9    9    1      -0.3007532823E+00      0.5798481402E+00      0.1146747574E+02     -0.2905881490E-03
          0                 4           2             9    9     1      -0.1459904981E-04       2    8    1      -0.1854356495E-01      0.4223973385E-01      0.5798481402E+00     -0.1459904981E-04

    ------------------------------------------------
       NWT REQUIRED            4 OUTER ITERATIONS 
       AND A TOTAL OF         16 INNER ITERATIONS.
    ------------------------------------------------
                                                   Max.-Head-Change                        Max.-Flux-Residual
  Residual-Control   Outer-Iter.   Inner-Iter.     Column Row Layer    Max.-Head-Change    Column Row Layer    Max.-Flux-Residual            L2-New               L2-Old           Solver-Max-Delh
          0                 1           6             9    9     1       0.2465960282E-01      11   11    1      -0.2783643839E+02      0.4962469250E+02      0.4223973385E-01      0.2465960282E-01
          0                 2           5             9    9     1      -0.2132578874E-02      11   11    1       0.2779846338E+01      0.4980436079E+01      0.4962469250E+02     -0.2132578874E-02
          0                 3           3             9    9     1      -0.1065527669E-03      11   11    1       0.1391062560E+00      0.2521467301E+00      0.4980436079E+01     -0.1065527669E-03
          0                 4           2             9    9     1      -0.5340011435E-05       2    8    1      -0.8573647006E-02      0.1918825327E-01      0.2521467301E+00     -0.5340011435E-05

    ------------------------------------------------
       NWT REQUIRED            4 OUTER ITERATIONS 
       AND A TOTAL OF         16 INNER ITERATIONS.
    ------------------------------------------------
                                                   Max.-Head-Change                        Max.-Flux-Residual
  Residual-Control   Outer-Iter.   Inner-Iter.     Column Row Layer    Max.-Head-Change    Column Row Layer    Max.-Flux-Residual            L2-New               L2-Old           Solver-Max-Delh
          0                 1           5            11   11     1      -0.7080983418E-02      11   11    1      -0.1184016646E+02      0.1991490886E+02      0.1918825327E-01     -0.7080983418E-02
          0                 2           4            11   11     1       0.6046194338E-03      11   11    1       0.1183107601E+01      0.1993449493E+01      0.1991490886E+02      0.6046194338E-03
          0                 3           3            11   11     1       0.3081816250E-04      11   11    1       0.5930730980E-01      0.1029935938E+00      0.1993449493E+01      0.3081816250E-04

    ------------------------------------------------
       NWT REQUIRED            3 OUTER ITERATIONS 
       AND A TOTAL OF         12 INNER ITERATIONS.
    ------------------------------------------------
                                                   Max.-Head-Change                        Max.-Flux-Residual
  Residual-Control   Outer-Iter.   Inner-Iter.     Column Row Layer    Max.-Head-Change    Column Row Layer    Max.-Flux-Residual            L2-New               L2-Old           Solver-Max-Delh
          0                 1           5             9    9     2      -0.5852007657E-02       9    9    1      -0.7448113064E+01      0.1090844457E+02      0.1029935938E+00     -0.5852007657E-02
          0                 2           4             9    9     2       0.5055050058E-03       9    9    1       0.7445780165E+00      0.1090681663E+01      0.1090844457E+02      0.5055050058E-03
          0                 3           2             9    9     2       0.2516150276E-04       9    9    1       0.3741400660E-01      0.5722683005E-01      0.1090681663E+01      0.2516150276E-04

    ------------------------------------------------
       NWT REQUIRED            3 OUTER ITERATIONS 
       AND A TOTAL OF         11 INNER ITERATIONS.
    ------------------------------------------------
                                                   Max.-Head-Change                        Max.-Flux-Residual
  Residual-Control   Outer-Iter.   Inner-Iter.     Column Row Layer    Max.-Head-Change    Column Row Layer    Max.-Flux-Residual            L2-New               L2-Old           Solver-Max-Delh
          0                 1           5             9    9     1      -0.4227463458E-02       9    9    1      -0.5114891092E+01      0.6252600686E+01      0.5722683005E-01     -0.4227463458E-02
          0                 2           3             9    9     1       0.3652521441E-03       9    9    1       0.5115320439E+00      0.6266164234E+00      0.6252600686E+01      0.3652521441E-03
          0                 3           2             9    9     1       0.1808092692E-04       9    9    1       0.2553942494E-01      0.3228166839E-01      0.6266164234E+00      0.1808092692E-04

    ------------------------------------------------
       NWT REQUIRED            3 OUTER ITERATIONS 
       AND A TOTAL OF         10 INNER ITERATIONS.
    ------------------------------------------------
                                                   Max.-Head-Change                        Max.-Flux-Residual
  Residual-Control   Outer-Iter.   Inner-Iter.     Column Row Layer    Max.-Head-Change    Column Row Layer    Max.-Flux-Residual            L2-New               L2-Old           Solver-Max-Delh
          0                 1           4             9    9     1      -0.1740171538E-02       9    9    1      -0.2056967205E+01      0.2864780798E+01      0.3228166839E-01     -0.1740171538E-02
          0                 2           3             9    9     1       0.1504455410E-03       9    9    1       0.2053207172E+00      0.2879744257E+00      0.2864780798E+01      0.1504455410E-03
          0                 3           1             9    9     1       0.7307660178E-05       9    9    1       0.1042691019E-01      0.1574739098E-01      0.2879744257E+00      0.7307660178E-05

    ------------------------------------------------
       NWT REQUIRED            3 OUTER ITERATIONS 
       AND A TOTAL OF          8 INNER ITERATIONS.
    ------------------------------------------------
                                                   Max.-Head-Change                        Max.-Flux-Residual
  Residual-Control   Outer-Iter.   Inner-Iter.     Column Row Layer    Max.-Head-Change    Column Row Layer    Max.-Flux-Residual            L2-New               L2-Old           Solver-Max-Delh
          0                 1           4            11   11     1       0.5359381430E-03      11   11    1       0.7274532368E+00      0.1255542740E+01      0.1574739098E-01      0.5359381430E-03
          0                 2           2            11   11     1      -0.4532945371E-04      11   11    1      -0.7360781473E-01      0.1276463209E+00      0.1255542740E+01     -0.4532945371E-04

    ------------------------------------------------
       NWT REQUIRED            2 OUTER ITERATIONS 
       AND A TOTAL OF          6 INNER ITERATIONS.
    ------------------------------------------------
                                                   Max.-Head-Change                        Max.-Flux-Residual
  Residual-Control   Outer-Iter.   Inner-Iter.     Column Row Layer    Max.-Head-Change    Column Row Layer    Max.-Flux-Residual            L2-New               L2-Old           Solver-Max-Delh
          0                 1           4             9    9     2       0.4283049667E-03      11   11    1       0.4907860312E+00      0.7970692452E+00      0.1276463209E+00      0.4283049667E-03
          0                 2           2             9    9     2      -0.3678583094E-04      11   11    1      -0.4902265756E-01      0.8216391329E-01      0.7970692452E+00     -0.3678583094E-04

    ------------------------------------------------
       NWT REQUIRED            2 OUTER ITERATIONS 
       AND A TOTAL OF          6 INNER ITERATIONS.
    ------------------------------------------------

 OUTPUT CONTROL FOR STRESS PERIOD     22   TIME STEP     2
    SAVE BUDGET
 UBDSV1 SAVING "         STORAGE" ON UNIT  70 AT TIME STEP    2, STRESS PERIOD  22
 UBDSV2 SAVING "   CONSTANT HEAD" ON UNIT  70 AT TIME STEP    2, STRESS PERIOD  22
 UBDSV1 SAVING "FLOW RIGHT FACE " ON UNIT  70 AT TIME STEP    2, STRESS PERIOD  22
 UBDSV1 SAVING "FLOW FRONT FACE " ON UNIT  70 AT TIME STEP    2, STRESS PERIOD  22
 UBDSV1 SAVING "FLOW LOWER FACE " ON UNIT  70 AT TIME STEP    2, STRESS PERIOD  22
 UBDSV4 SAVING " HEAD DEP BOUNDS" ON UNIT  70 AT TIME STEP    2, STRESS PERIOD  22
 UBDSV4 SAVING "  STREAM LEAKAGE" ON UNIT  70 AT TIME STEP    2, STRESS PERIOD  22



 UBDSV4 SAVING "             MNW" ON UNIT  70 AT TIME STEP    2, STRESS PERIOD  22
 
 
 
 
 
 
 
 
 UBDSV3 SAVING "FARM  NET  RECH." ON UNIT  70 AT TIME STEP    2, STRESS PERIOD  22
 UBDSV4 SAVING " GHOST-NODE FLUX" ON UNIT  70 AT TIME STEP    2, STRESS PERIOD  22
 UBDSV4 SAVING " GHOST-NODE FLUX" ON UNIT  70 AT TIME STEP    2, STRESS PERIOD  22
 UBDSV4 SAVING " GHOST-NODE FLUX" ON UNIT  70 AT TIME STEP    2, STRESS PERIOD  22
1
  VOLUMETRIC BUDGET FOR ENTIRE MODEL AT END OF TIME STEP    2 IN STRESS PERIOD     22
  ------------------------------------------------------------------------------

     CUMULATIVE VOLUMES      L**3       RATES FOR THIS TIME STEP      L**3/T
     ------------------                 ------------------------

           IN:                                      IN:
           ---                                      ---
             STORAGE =    18297282.0000               STORAGE =       12261.5156
       CONSTANT HEAD =           0.0000         CONSTANT HEAD =           0.0000
     HEAD DEP BOUNDS =     5018125.5000       HEAD DEP BOUNDS =        9010.9824
      STREAM LEAKAGE =    11176885.0000        STREAM LEAKAGE =       18805.2285
                 MNW =       36021.4414                   MNW =           0.0000
          FARM WELLS =           0.0000            FARM WELLS =           0.0000
    FARM  NET  RECH. =    11883296.0000      FARM  NET  RECH. =       10561.8340
     GHOST-NODE FLUX =     4103522.2500       GHOST-NODE FLUX =        6831.4712

            TOTAL IN =    50515132.0000              TOTAL IN =       57471.0352

          OUT:                                     OUT:
          ----                                     ----
             STORAGE =     8241092.0000               STORAGE =        1984.0309
       CONSTANT HEAD =           0.0000         CONSTANT HEAD =           0.0000
     HEAD DEP BOUNDS =    11225091.0000       HEAD DEP BOUNDS =       15177.4170
      STREAM LEAKAGE =      706150.0625        STREAM LEAKAGE =         169.0703
                 MNW =     7362092.5000                   MNW =       14051.0156
          FARM WELLS =     7452369.0000            FARM WELLS =       16868.0078
    FARM  NET  RECH. =     2389454.7500      FARM  NET  RECH. =        1372.2269
     GHOST-NODE FLUX =    13138885.0000       GHOST-NODE FLUX =        7849.2651

           TOTAL OUT =    50515136.0000             TOTAL OUT =       57471.0312

            IN - OUT =          -4.0000              IN - OUT =       3.9062E-03

 PERCENT DISCREPANCY =          -0.00     PERCENT DISCREPANCY =           0.00






          TIME SUMMARY AT END OF TIME STEP     2 IN STRESS PERIOD     22
                    SECONDS     MINUTES      HOURS       DAYS        YEARS
                    -----------------------------------------------------------
   TIME STEP LENGTH 1.31414E+06  21902.      365.04      15.210     4.16427E-02
 STRESS PERIOD TIME 2.62829E+06  43805.      730.08      30.420     8.32854E-02
         TOTAL TIME 5.78223E+07 9.63706E+05  16062.      669.24      1.8323    
1
1
                            STRESS PERIOD NO.     23, LENGTH =   30.42000    
                            -----------------------------------------------

                              NUMBER OF TIME STEPS =     2

                               MULTIPLIER FOR DELT =     1.000

                            INITIAL TIME STEP SIZE =   15.21000    

 REUSING NON-PARAMETER GHB CELLS FROM LAST STRESS PERIOD

     92 GHB CELLS

 REUSING STREAM SEGMENT DATA FROM LAST STRESS PERIOD

 REUSING MNW7  FROM LAST STRESS PERIOD

 Parameter:  WELLS1
 WELL NO. LAYER    ROW    COL  F-WELL ID    FARM ID         QMAX         QMAXRESET       
 ----------------------------------------------------------------------------------------
       1      1      5      6          1          1      5.0000E+03              0
       2      1      8      7          2          1      5.0000E+03              0
       3      1      8      9          3          1      5.0000E+03              0
       4      1      5      9          4          2      3.0000E+03              0
       5      1      6     10          5          2      2.0000E+03              0
       6      1      7     11          6          2      1.0000E+03              0
       7      1     18      3          7          3      2.0000E+03              0
       8      1     21      3          8          3      4.0000E+03              0
       9      1     18     19          9          4      3.0000E+03              0
      10      1     21     19         10          4      5.0000E+03              0
      11      0      6      2        -11          5      5.0000E+03              1
      12      0      8      2        -12          5      5.0000E+03              1
      13      0     10      2        -13          5      5.0000E+03              1
      14      0      3     19        -14          6      1.0000E+04              1
      15      0      6     17        -15          6      6.0000E+03              1

 NUMBER OF ACTIVE FARM WELLS:       15

 THE SINGLE LAYER FMP- OR MNW- WELL IN ROW      8 AND COLUMN      7 IS LOCATED IN AN INACTIVE CELL (IBOUND=0) AND HAS BEEN EXCLUDED FROM THE TOTAL MAXIMUM CAPACITY PER FARM

 THE SINGLE LAYER FMP- OR MNW- WELL IN ROW      8 AND COLUMN      9 IS LOCATED IN AN INACTIVE CELL (IBOUND=0) AND HAS BEEN EXCLUDED FROM THE TOTAL MAXIMUM CAPACITY PER FARM

 THE SINGLE LAYER FMP- OR MNW- WELL IN ROW      6 AND COLUMN     10 IS LOCATED IN AN INACTIVE CELL (IBOUND=0) AND HAS BEEN EXCLUDED FROM THE TOTAL MAXIMUM CAPACITY PER FARM

 THE SINGLE LAYER FMP- OR MNW- WELL IN ROW      7 AND COLUMN     11 IS LOCATED IN AN INACTIVE CELL (IBOUND=0) AND HAS BEEN EXCLUDED FROM THE TOTAL MAXIMUM CAPACITY PER FARM

 FARM-ID  NUMBER OF WELLS PER FARM  TOTAL MAX.CAPACITY PER FARM
       1                         1                    5000.0000
       2                         1                    3000.0000
       3                         2                    6000.0000
       4                         2                    8000.0000
       5                         3                   15000.0000
       6                         2                   16000.0000
       7                         0                       0.0000
       8                         0                       0.0000

 READING LIST ON UNIT   20 WITH FILE NAME: C:\MF_OWHM_Release_Package\MF_OWHM_v1_0\examples\test-run-owhm-lgr\fmp-lgr-nwt\DATA_FMP\OFE.in
 LIST SCALING FACTOR= 0.80000    
 (THE SCALE FACTOR WAS APPLIED TO FIELDS   2 -   7)

 Reading list on unit   30

 Reading list on unit   40

  REF. EVAPOTRANSPIRATION =  1.540000E-03

 READING LIST ON UNIT   50 WITH FILE NAME: C:\MF_OWHM_Release_Package\MF_OWHM_v1_0\examples\test-run-owhm-lgr\fmp-lgr-nwt\DATA_FMP\FTE.in

Transpiratory and Evaporative Fractions of Crop Consumptive Use
    % Transpiration % Evap. for Precip. % Evap. for Irrig.
    1          0.000          1.000          0.500
    2          0.000          1.000          0.350
    3          0.954          0.046          0.046
    4          0.125          0.875          0.875
    5          0.927          0.073          0.000
    6          0.200          0.800          0.000

 READING LIST ON UNIT   60 WITH FILE NAME: C:\MF_OWHM_Release_Package\MF_OWHM_v1_0\examples\test-run-owhm-lgr\fmp-lgr-nwt\DATA_FMP\INEFFSW.in

FRACTIONS OF IN-EFFICIENT LOSSES TO SW-RUNOFF FROM 
     PRECIPITATION:  IRRIGATION:
    1          0.500          0.600
    2          0.400          0.300
    3          0.600          0.500
    4          0.700          0.600
    5          0.500          0.000
    6          0.300          0.000

       PRECIPITATION FLUX =  1.490000E-03

 OPENING FILE WITH FILENAME: ./DATA_FMP/NRDV.in
 AND UNIT NUMBER: -169
 READING SCALE FACTOR LIST ON UNIT   80 ASSOCIATED WITH FILE: C:\MF_OWHM_Release_Package\MF_OWHM_v1_0\examples\test-run-owhm-lgr\fmp-lgr-nwt\DATA_FMP\NRDV.in
 FIELD     SCALE FACTOR
     1       1.0000    
     2       2.0000    
     3       1.0000    
     4       1.0000    

UNRANKED LIST OF NON-ROUTED DELIVERIES TO FARMS [L3]:
TYPE:             1

FARM-ID  VOLUME:
      1   3.000E+04
      2   3.000E+04
      3   4.000E+04
      4   2.000E+04
      5   2.000E+04
      6   4.000E+04
      7   0.000E+00
      8   0.000E+00

FARM-ID  PRIORITY RANK OF NRD-TYPE:
      1           1
      2           1
      3           1
      4           1
      5           1
      6           1
      7           1
      8           1

FARM-ID  USE-FLAG:
         0 = SUFFICIENT USE
         1 = ABSOLUTE USE (RECHARGE SURPLUS BACK INTO CANAL)
         2 = ABSOLUTE USE (INJECT SURPLUS INTO FARM-WELLS)
      1           0
      2           0
      3           0
      4           0
      5           0
      6           0
      7           0
      8           0

LIST OF NON-ROUTED DELIVERIES IN RANKED SEQUENCE [L3/T]:

FARM-ID  RATE:
      1   9.862E+02
      2   9.862E+02
      3   1.315E+03
      4   6.575E+02
      5   6.575E+02
      6   1.315E+03
      7   0.000E+00
      8   0.000E+00

FARM-ID  USE-FLAG:
         0 = SUFFICIENT USE
         1 = ABSOLUTE USE (RECHARGE SURPLUS BACK INTO CANAL)
         2 = ABSOLUTE USE (INJECT SURPLUS INTO FARM-WELLS)
      1           0
      2           0
      3           0
      4           0
      5           0
      6           0
      7           0
      8           0

SURFACE-WATER FARM ALLOTMENT HEIGHT [L]:   0.000
 
 SOLVING FOR HEAD 
                                                   Max.-Head-Change                        Max.-Flux-Residual
  Residual-Control   Outer-Iter.   Inner-Iter.     Column Row Layer    Max.-Head-Change    Column Row Layer    Max.-Flux-Residual            L2-New               L2-Old           Solver-Max-Delh
          0                 1           9            19   21     1       0.2488777306E+01       6    5    1       0.4948159979E+04      0.8486439655E+04      0.8216391329E-01      0.2488777306E+01
          0                 2           9            19    3     3       0.5812974891E+01       2   10    1       0.2358728526E+04      0.6314323719E+04      0.8486439655E+04      0.5812974891E+01
          0                 3           8            19    3     3       0.7370635775E+00      13   16    1       0.1190147094E+04      0.2474781977E+04      0.6314323719E+04      0.7370635775E+00
          0                 4           7             2    8     3       0.1154929745E+00       2    8    1       0.2458054415E+03      0.4853416790E+03      0.2474781977E+04      0.1154929745E+00
          0                 5           6            14   16     1      -0.3911118039E-01      14   16    1      -0.1262923337E+03      0.1819435590E+03      0.4853416790E+03     -0.3911118039E-01
          0                 6           6            14   16     1      -0.1794682165E-01      14   16    1      -0.5890392462E+02      0.7024326194E+02      0.1819435590E+03     -0.1794682165E-01
          0                 7           5            14   16     1      -0.6794714800E-02      14   16    1      -0.2227994861E+02      0.2507295497E+02      0.7024326194E+02     -0.6794714800E-02
          0                 8           4            14   16     1      -0.2360532894E-02      14   16    1      -0.7735286975E+01      0.8486123413E+01      0.2507295497E+02     -0.2360532894E-02
          0                 9           4            14   16     1      -0.7874619202E-03      14   16    1      -0.2581086380E+01      0.2790842688E+01      0.8486123413E+01     -0.7874619202E-03
          0                10           3            14   16     1      -0.2578793823E-03      14   16    1      -0.8438269041E+00      0.9039907384E+00      0.2790842688E+01     -0.2578793823E-03
          0                11           3            14   16     1      -0.8342230452E-04      14   16    1      -0.2751250727E+00      0.2923506241E+00      0.9039907384E+00     -0.8342230452E-04

    ------------------------------------------------
       NWT REQUIRED           11 OUTER ITERATIONS 
       AND A TOTAL OF         64 INNER ITERATIONS.
    ------------------------------------------------
                                                   Max.-Head-Change                        Max.-Flux-Residual
  Residual-Control   Outer-Iter.   Inner-Iter.     Column Row Layer    Max.-Head-Change    Column Row Layer    Max.-Flux-Residual            L2-New               L2-Old           Solver-Max-Delh
          0                 1           7             6    5     1      -0.3750207425E+00       6    5    1      -0.7891576133E+03      0.1469464456E+04      0.2923506241E+00     -0.3750207425E+00
          0                 2           6            13   16     1      -0.3947692563E-01      13   16    1      -0.1051202730E+03      0.1624683863E+03      0.1469464456E+04     -0.3947692563E-01
          0                 3           5            13   16     1      -0.2157186237E-02       6    5    1       0.3850852390E+01      0.8397015083E+01      0.1624683863E+03     -0.2157186237E-02
          0                 4           3            13   16     1      -0.3708530485E-03      13   16    1      -0.9942234135E+00      0.1140585497E+01      0.8397015083E+01     -0.3708530485E-03
          0                 5           2            13   16     1      -0.1959427251E-04      14   16    1      -0.3367123572E-01      0.7179705512E-01      0.1140585497E+01     -0.1959427251E-04

    ------------------------------------------------
       NWT REQUIRED            5 OUTER ITERATIONS 
       AND A TOTAL OF         23 INNER ITERATIONS.
    ------------------------------------------------
                                                   Max.-Head-Change                        Max.-Flux-Residual
  Residual-Control   Outer-Iter.   Inner-Iter.     Column Row Layer    Max.-Head-Change    Column Row Layer    Max.-Flux-Residual            L2-New               L2-Old           Solver-Max-Delh
          0                 1           7             7    9     1       0.1194782664E+00       9   10    1      -0.1711751915E+03      0.3566679442E+03      0.7179705512E-01      0.1194782664E+00
          0                 2           5             7    9     1      -0.1035379751E-01      13   16    1      -0.2258942388E+02      0.4219421087E+02      0.3566679442E+03     -0.1035379751E-01
          0                 3           4             7    9     1      -0.5194605953E-03       9   10    1       0.8532397858E+00      0.1935963547E+01      0.4219421087E+02     -0.5194605953E-03
          0                 4           3            13   16     1      -0.8274320219E-04      13   16    1      -0.2109052690E+00      0.2719013307E+00      0.1935963547E+01     -0.8274320219E-04

    ------------------------------------------------
       NWT REQUIRED            4 OUTER ITERATIONS 
       AND A TOTAL OF         19 INNER ITERATIONS.
    ------------------------------------------------
                                                   Max.-Head-Change                        Max.-Flux-Residual
  Residual-Control   Outer-Iter.   Inner-Iter.     Column Row Layer    Max.-Head-Change    Column Row Layer    Max.-Flux-Residual            L2-New               L2-Old           Solver-Max-Delh
          0                 1           6             9    5     1      -0.6287661064E-01       9    5    1      -0.9374951437E+02      0.1654972696E+03      0.2719013307E+00     -0.6287661064E-01
          0                 2           5             9    5     1       0.5413707679E-02      13   16    1      -0.1060502960E+02      0.1962928832E+02      0.1654972696E+03      0.5413707679E-02
          0                 3           4             9    5     1       0.2704543426E-03       9    5    1       0.4657757735E+00      0.9124459115E+00      0.1962928832E+02      0.2704543426E-03
          0                 4           2            13   16     1      -0.3890919394E-04      13   16    1      -0.9913291660E-01      0.1258000696E+00      0.9124459115E+00     -0.3890919394E-04

    ------------------------------------------------
       NWT REQUIRED            4 OUTER ITERATIONS 
       AND A TOTAL OF         17 INNER ITERATIONS.
    ------------------------------------------------
                                                   Max.-Head-Change                        Max.-Flux-Residual
  Residual-Control   Outer-Iter.   Inner-Iter.     Column Row Layer    Max.-Head-Change    Column Row Layer    Max.-Flux-Residual            L2-New               L2-Old           Solver-Max-Delh
          0                 1           6             9    9     1      -0.3377265319E-01       9    5    1      -0.4969733526E+02      0.7840972019E+02      0.1258000696E+00     -0.3377265319E-01
          0                 2           5             9    9     1       0.2913808492E-02       9    5    1       0.4956951441E+01      0.8531444691E+01      0.7840972019E+02      0.2913808492E-02
          0                 3           3             9    9     1       0.1456919873E-03       9    5    1       0.2473910360E+00      0.4140138083E+00      0.8531444691E+01      0.1456919873E-03
          0                 4           2            13   16     1      -0.1101813954E-04      13   16    1      -0.2751389629E-01      0.4318364444E-01      0.4140138083E+00     -0.1101813954E-04

    ------------------------------------------------
       NWT REQUIRED            4 OUTER ITERATIONS 
       AND A TOTAL OF         16 INNER ITERATIONS.
    ------------------------------------------------
                                                   Max.-Head-Change                        Max.-Flux-Residual
  Residual-Control   Outer-Iter.   Inner-Iter.     Column Row Layer    Max.-Head-Change    Column Row Layer    Max.-Flux-Residual            L2-New               L2-Old           Solver-Max-Delh
          0                 1           6             9    9     1      -0.2027834084E-01       9    5    1      -0.2303283050E+02      0.3577810399E+02      0.4318364444E-01     -0.2027834084E-01
          0                 2           4             9    9     1       0.1749835559E-02       9    5    1       0.2300624613E+01      0.3592070474E+01      0.3577810399E+02      0.1749835559E-02
          0                 3           3             9    9     1       0.8807079165E-04       9    5    1       0.1151475959E+00      0.1913412230E+00      0.3592070474E+01      0.8807079165E-04

    ------------------------------------------------
       NWT REQUIRED            3 OUTER ITERATIONS 
       AND A TOTAL OF         13 INNER ITERATIONS.
    ------------------------------------------------
                                                   Max.-Head-Change                        Max.-Flux-Residual
  Residual-Control   Outer-Iter.   Inner-Iter.     Column Row Layer    Max.-Head-Change    Column Row Layer    Max.-Flux-Residual            L2-New               L2-Old           Solver-Max-Delh
          0                 1           5             9    9     1      -0.6899229401E-02       9    5    1      -0.9366342055E+01      0.1572941911E+02      0.1913412230E+00     -0.6899229401E-02
          0                 2           4             9    9     1       0.5957919250E-03       9    5    1       0.9364292710E+00      0.1630874555E+01      0.1572941911E+02      0.5957919250E-03
          0                 3           2             9    9     1       0.2948992137E-04       9    5    1       0.4656750287E-01      0.8080968458E-01      0.1630874555E+01      0.2948992137E-04

    ------------------------------------------------
       NWT REQUIRED            3 OUTER ITERATIONS 
       AND A TOTAL OF         11 INNER ITERATIONS.
    ------------------------------------------------
                                                   Max.-Head-Change                        Max.-Flux-Residual
  Residual-Control   Outer-Iter.   Inner-Iter.     Column Row Layer    Max.-Head-Change    Column Row Layer    Max.-Flux-Residual            L2-New               L2-Old           Solver-Max-Delh
          0                 1           5             6    8     1      -0.2904121024E-02       7    9    1      -0.3563907675E+01      0.8445420376E+01      0.8080968458E-01     -0.2904121024E-02
          0                 2           4             6    8     1       0.2506941586E-03      13   16    1       0.3770978611E+00      0.9251013308E+00      0.8445420376E+01      0.2506941586E-03
          0                 3           2             6    8     1       0.1245975788E-04       7    9    1       0.1764745719E-01      0.4443238563E-01      0.9251013308E+00      0.1245975788E-04

    ------------------------------------------------
       NWT REQUIRED            3 OUTER ITERATIONS 
       AND A TOTAL OF         11 INNER ITERATIONS.
    ------------------------------------------------
                                                   Max.-Head-Change                        Max.-Flux-Residual
  Residual-Control   Outer-Iter.   Inner-Iter.     Column Row Layer    Max.-Head-Change    Column Row Layer    Max.-Flux-Residual            L2-New               L2-Old           Solver-Max-Delh
          0                 1           4             9    9     2       0.2011620378E-02       7    9    1      -0.2508534140E+01      0.5380870603E+01      0.4443238563E-01      0.2011620378E-02
          0                 2           3             9    9     2      -0.1742828200E-03       7    9    1       0.2506963883E+00      0.5670020237E+00      0.5380870603E+01     -0.1742828200E-03
          0                 3           2             9    9     2      -0.8292022053E-05       7    9    1       0.1273786661E-01      0.2913393626E-01      0.5670020237E+00     -0.8292022053E-05

    ------------------------------------------------
       NWT REQUIRED            3 OUTER ITERATIONS 
       AND A TOTAL OF          9 INNER ITERATIONS.
    ------------------------------------------------
                                                   Max.-Head-Change                        Max.-Flux-Residual
  Residual-Control   Outer-Iter.   Inner-Iter.     Column Row Layer    Max.-Head-Change    Column Row Layer    Max.-Flux-Residual            L2-New               L2-Old           Solver-Max-Delh
          0                 1           4             9    9     2       0.1222611239E-02       9   10    1       0.1602872136E+01      0.3119662155E+01      0.2913393626E-01      0.1222611239E-02
          0                 2           3             9    9     2      -0.1057076164E-03       9   10    1      -0.1600141409E+00      0.3147974019E+00      0.3119662155E+01     -0.1057076164E-03
          0                 3           1             9    9     2      -0.4943482088E-05       9   10    1      -0.7792502118E-02      0.1812774778E-01      0.3147974019E+00     -0.4943482088E-05

    ------------------------------------------------
       NWT REQUIRED            3 OUTER ITERATIONS 
       AND A TOTAL OF          8 INNER ITERATIONS.
    ------------------------------------------------
                                                   Max.-Head-Change                        Max.-Flux-Residual
  Residual-Control   Outer-Iter.   Inner-Iter.     Column Row Layer    Max.-Head-Change    Column Row Layer    Max.-Flux-Residual            L2-New               L2-Old           Solver-Max-Delh
          0                 1           3             9   10     1       0.5491332609E-03       9   10    1       0.8600134747E+00      0.1574306476E+01      0.1812774778E-01      0.5491332609E-03
          0                 2           2             9   10     1      -0.4716743748E-04       9   10    1      -0.8545024873E-01      0.1577089717E+00      0.1574306476E+01     -0.4716743748E-04

    ------------------------------------------------
       NWT REQUIRED            2 OUTER ITERATIONS 
       AND A TOTAL OF          5 INNER ITERATIONS.
    ------------------------------------------------

 OUTPUT CONTROL FOR STRESS PERIOD     23   TIME STEP     1
    SAVE BUDGET
 UBDSV1 SAVING "         STORAGE" ON UNIT  70 AT TIME STEP    1, STRESS PERIOD  23
 UBDSV2 SAVING "   CONSTANT HEAD" ON UNIT  70 AT TIME STEP    1, STRESS PERIOD  23
 UBDSV1 SAVING "FLOW RIGHT FACE " ON UNIT  70 AT TIME STEP    1, STRESS PERIOD  23
 UBDSV1 SAVING "FLOW FRONT FACE " ON UNIT  70 AT TIME STEP    1, STRESS PERIOD  23
 UBDSV1 SAVING "FLOW LOWER FACE " ON UNIT  70 AT TIME STEP    1, STRESS PERIOD  23
 UBDSV4 SAVING " HEAD DEP BOUNDS" ON UNIT  70 AT TIME STEP    1, STRESS PERIOD  23
 UBDSV4 SAVING "  STREAM LEAKAGE" ON UNIT  70 AT TIME STEP    1, STRESS PERIOD  23



 UBDSV4 SAVING "             MNW" ON UNIT  70 AT TIME STEP    1, STRESS PERIOD  23
 
 
 
 
 
 
 
 
 UBDSV3 SAVING "FARM  NET  RECH." ON UNIT  70 AT TIME STEP    1, STRESS PERIOD  23
 UBDSV4 SAVING " GHOST-NODE FLUX" ON UNIT  70 AT TIME STEP    1, STRESS PERIOD  23
 UBDSV4 SAVING " GHOST-NODE FLUX" ON UNIT  70 AT TIME STEP    1, STRESS PERIOD  23
 UBDSV4 SAVING " GHOST-NODE FLUX" ON UNIT  70 AT TIME STEP    1, STRESS PERIOD  23
 
 SOLVING FOR HEAD 
                                                   Max.-Head-Change                        Max.-Flux-Residual
  Residual-Control   Outer-Iter.   Inner-Iter.     Column Row Layer    Max.-Head-Change    Column Row Layer    Max.-Flux-Residual            L2-New               L2-Old           Solver-Max-Delh
          0                 1           8            19    3     4       0.3014809656E+01      19   21    1       0.7530712781E+03      0.2469836983E+04      0.1577089717E+00      0.3014809656E+01
          0                 2           7            19    3     4      -0.4322524743E+00      14   16    1       0.6396477643E+03      0.7246598399E+03      0.2469836983E+04     -0.4322524743E+00
          0                 3           6            19    3     4      -0.4375082868E-01      14   16    1      -0.7356706589E+02      0.1054506860E+03      0.7246598399E+03     -0.4375082868E-01
          0                 4           5            19    3     3      -0.8834194291E-02      15   16    1      -0.2201948501E+02      0.2778181532E+02      0.1054506860E+03     -0.8834194291E-02
          0                 5           5            19    3     3      -0.2091528137E-02      15   16    1      -0.4906547064E+01      0.7065241642E+01      0.2778181532E+02     -0.2091528137E-02
          0                 6           4            19    3     3      -0.5025784661E-03      15   16    1      -0.1048808160E+01      0.1884029176E+01      0.7065241642E+01     -0.5025784661E-03
          0                 7           3             2    8     3      -0.1355013805E-03       2    8    1      -0.3036897281E+00      0.5364778690E+00      0.1884029176E+01     -0.1355013805E-03
          0                 8           3             2    8     3      -0.4150384570E-04       2    8    1      -0.9249731631E-01      0.1540177786E+00      0.5364778690E+00     -0.4150384570E-04

    ------------------------------------------------
       NWT REQUIRED            8 OUTER ITERATIONS 
       AND A TOTAL OF         41 INNER ITERATIONS.
    ------------------------------------------------
                                                   Max.-Head-Change                        Max.-Flux-Residual
  Residual-Control   Outer-Iter.   Inner-Iter.     Column Row Layer    Max.-Head-Change    Column Row Layer    Max.-Flux-Residual            L2-New               L2-Old           Solver-Max-Delh
          0                 1           7            14   16     1      -0.2669445095E+00      12   10    1      -0.6429345448E+03      0.1001106469E+04      0.1540177786E+00     -0.2669445095E+00
          0                 2           6            14   16     1      -0.3796306343E-01      14   16    1      -0.9032262217E+02      0.1056924528E+03      0.1001106469E+04     -0.3796306343E-01
          0                 3           4            14   16     1      -0.1967184077E-02      14   16    1      -0.4487441407E+01      0.6160914395E+01      0.1056924528E+03     -0.1967184077E-02
          0                 4           3            14   16     1      -0.3513927229E-03      14   16    1      -0.8346898267E+00      0.8646625942E+00      0.6160914395E+01     -0.3513927229E-03
          0                 5           2            14   16     1      -0.1777977367E-04      14   16    1      -0.4132732347E-01      0.4742072496E-01      0.8646625942E+00     -0.1777977367E-04

    ------------------------------------------------
       NWT REQUIRED            5 OUTER ITERATIONS 
       AND A TOTAL OF         22 INNER ITERATIONS.
    ------------------------------------------------
                                                   Max.-Head-Change                        Max.-Flux-Residual
  Residual-Control   Outer-Iter.   Inner-Iter.     Column Row Layer    Max.-Head-Change    Column Row Layer    Max.-Flux-Residual            L2-New               L2-Old           Solver-Max-Delh
          0                 1           6             9   10     1      -0.5999657187E-01       9   10    1      -0.9414069499E+02      0.1219720156E+03      0.4742072496E-01     -0.5999657187E-01
          0                 2           5             9   10     1       0.5166709425E-02      14   16    1      -0.1027963468E+02      0.1593343871E+02      0.1219720156E+03      0.5166709425E-02
          0                 3           3             9   10     1       0.2583727761E-03       9   10    1       0.4685160250E+00      0.6735534930E+00      0.1593343871E+02      0.2583727761E-03
          0                 4           2            14   16     1      -0.2735838672E-04      14   16    1      -0.6716570311E-01      0.8922491877E-01      0.6735534930E+00     -0.2735838672E-04

    ------------------------------------------------
       NWT REQUIRED            4 OUTER ITERATIONS 
       AND A TOTAL OF         16 INNER ITERATIONS.
    ------------------------------------------------
                                                   Max.-Head-Change                        Max.-Flux-Residual
  Residual-Control   Outer-Iter.   Inner-Iter.     Column Row Layer    Max.-Head-Change    Column Row Layer    Max.-Flux-Residual            L2-New               L2-Old           Solver-Max-Delh
          0                 1           6             9   10     1      -0.3171535283E-01       9   10    1      -0.4147086679E+02      0.6208547577E+02      0.8922491877E-01     -0.3171535283E-01
          0                 2           5             9   10     1       0.2734654841E-02      14   16    1      -0.4829851727E+01      0.7861667676E+01      0.6208547577E+02      0.2734654841E-02
          0                 3           3             9   10     1       0.1363638075E-03       9   10    1       0.2061012904E+00      0.3836279967E+00      0.7861667676E+01      0.1363638075E-03
          0                 4           2            14   16     1      -0.1314748579E-04      14   16    1      -0.3094414476E-01      0.4619187138E-01      0.3836279967E+00     -0.1314748579E-04

    ------------------------------------------------
       NWT REQUIRED            4 OUTER ITERATIONS 
       AND A TOTAL OF         16 INNER ITERATIONS.
    ------------------------------------------------
                                                   Max.-Head-Change                        Max.-Flux-Residual
  Residual-Control   Outer-Iter.   Inner-Iter.     Column Row Layer    Max.-Head-Change    Column Row Layer    Max.-Flux-Residual            L2-New               L2-Old           Solver-Max-Delh
          0                 1           6             9   10     1      -0.1224537852E-01       9   10    1      -0.1443188692E+02      0.3189696847E+02      0.4619187138E-01     -0.1224537852E-01
          0                 2           4             9   10     1       0.1056645329E-02      14   16    1      -0.1478919729E+01      0.3514582254E+01      0.3189696847E+02      0.1056645329E-02
          0                 3           3             9   10     1       0.5273884979E-04      15   16    1      -0.8030727622E-01      0.1986589906E+00      0.3514582254E+01      0.5273884979E-04

    ------------------------------------------------
       NWT REQUIRED            3 OUTER ITERATIONS 
       AND A TOTAL OF         13 INNER ITERATIONS.
    ------------------------------------------------
                                                   Max.-Head-Change                        Max.-Flux-Residual
  Residual-Control   Outer-Iter.   Inner-Iter.     Column Row Layer    Max.-Head-Change    Column Row Layer    Max.-Flux-Residual            L2-New               L2-Old           Solver-Max-Delh
          0                 1           5             6    7     1      -0.6982231458E-02       6    7    1      -0.6713239293E+01      0.1680083223E+02      0.1986589906E+00     -0.6982231458E-02
          0                 2           4             6    7     1       0.6024343928E-03       6    7    1       0.6713184797E+00      0.1682442319E+01      0.1680083223E+02      0.6024343928E-03
          0                 3           3             6    7     1       0.3042008799E-04       6    7    1       0.3348796169E-01      0.8910008047E-01      0.1682442319E+01      0.3042008799E-04

    ------------------------------------------------
       NWT REQUIRED            3 OUTER ITERATIONS 
       AND A TOTAL OF         12 INNER ITERATIONS.
    ------------------------------------------------
                                                   Max.-Head-Change                        Max.-Flux-Residual
  Residual-Control   Outer-Iter.   Inner-Iter.     Column Row Layer    Max.-Head-Change    Column Row Layer    Max.-Flux-Residual            L2-New               L2-Old           Solver-Max-Delh
          0                 1           5             8    5     1      -0.3800329067E-02       6    7    1      -0.3502203440E+01      0.9290253999E+01      0.8910008047E-01     -0.3800329067E-02
          0                 2           4             8    5     1       0.3283441057E-03       6    7    1       0.3500743583E+00      0.9554978004E+00      0.9290253999E+01      0.3283441057E-03
          0                 3           2             8    5     1       0.1613264475E-04       6    7    1       0.1729640330E-01      0.4860470497E-01      0.9554978004E+00      0.1613264475E-04

    ------------------------------------------------
       NWT REQUIRED            3 OUTER ITERATIONS 
       AND A TOTAL OF         11 INNER ITERATIONS.
    ------------------------------------------------
                                                   Max.-Head-Change                        Max.-Flux-Residual
  Residual-Control   Outer-Iter.   Inner-Iter.     Column Row Layer    Max.-Head-Change    Column Row Layer    Max.-Flux-Residual            L2-New               L2-Old           Solver-Max-Delh
          0                 1           5             8    5     1      -0.1865213824E-02       7    5    1      -0.1850491783E+01      0.5038535036E+01      0.4860470497E-01     -0.1865213824E-02
          0                 2           4             8    5     1       0.1611322641E-03       7    5    1       0.1851348485E+00      0.5332032371E+00      0.5038535036E+01      0.1611322641E-03
          0                 3           2             8    5     1       0.8069689387E-05       7    5    1       0.9441814240E-02      0.2669637161E-01      0.5332032371E+00      0.8069689387E-05

    ------------------------------------------------
       NWT REQUIRED            3 OUTER ITERATIONS 
       AND A TOTAL OF         11 INNER ITERATIONS.
    ------------------------------------------------
                                                   Max.-Head-Change                        Max.-Flux-Residual
  Residual-Control   Outer-Iter.   Inner-Iter.     Column Row Layer    Max.-Head-Change    Column Row Layer    Max.-Flux-Residual            L2-New               L2-Old           Solver-Max-Delh
          0                 1           4             7    5     1      -0.8255448891E-03       7    9    1      -0.1173411471E+01      0.2582712542E+01      0.2669637161E-01     -0.8255448891E-03
          0                 2           3             7    5     1       0.7119806699E-04       7    9    1       0.1173006519E+00      0.2670775095E+00      0.2582712542E+01      0.7119806699E-04

    ------------------------------------------------
       NWT REQUIRED            2 OUTER ITERATIONS 
       AND A TOTAL OF          7 INNER ITERATIONS.
    ------------------------------------------------
                                                   Max.-Head-Change                        Max.-Flux-Residual
  Residual-Control   Outer-Iter.   Inner-Iter.     Column Row Layer    Max.-Head-Change    Column Row Layer    Max.-Flux-Residual            L2-New               L2-Old           Solver-Max-Delh
          0                 1           4             7    9     1      -0.4615275471E-03       7    9    1      -0.6867341064E+00      0.1282101194E+01      0.2670775095E+00     -0.4615275471E-03
          0                 2           3             7    9     1       0.3957299661E-04       7    9    1       0.6809033395E-01      0.1281683367E+00      0.1282101194E+01      0.3957299661E-04

    ------------------------------------------------
       NWT REQUIRED            2 OUTER ITERATIONS 
       AND A TOTAL OF          7 INNER ITERATIONS.
    ------------------------------------------------

 OUTPUT CONTROL FOR STRESS PERIOD     23   TIME STEP     2
    SAVE BUDGET
 UBDSV1 SAVING "         STORAGE" ON UNIT  70 AT TIME STEP    2, STRESS PERIOD  23
 UBDSV2 SAVING "   CONSTANT HEAD" ON UNIT  70 AT TIME STEP    2, STRESS PERIOD  23
 UBDSV1 SAVING "FLOW RIGHT FACE " ON UNIT  70 AT TIME STEP    2, STRESS PERIOD  23
 UBDSV1 SAVING "FLOW FRONT FACE " ON UNIT  70 AT TIME STEP    2, STRESS PERIOD  23
 UBDSV1 SAVING "FLOW LOWER FACE " ON UNIT  70 AT TIME STEP    2, STRESS PERIOD  23
 UBDSV4 SAVING " HEAD DEP BOUNDS" ON UNIT  70 AT TIME STEP    2, STRESS PERIOD  23
 UBDSV4 SAVING "  STREAM LEAKAGE" ON UNIT  70 AT TIME STEP    2, STRESS PERIOD  23



 UBDSV4 SAVING "             MNW" ON UNIT  70 AT TIME STEP    2, STRESS PERIOD  23
 
 
 
 
 
 
 
 
 UBDSV3 SAVING "FARM  NET  RECH." ON UNIT  70 AT TIME STEP    2, STRESS PERIOD  23
 UBDSV4 SAVING " GHOST-NODE FLUX" ON UNIT  70 AT TIME STEP    2, STRESS PERIOD  23
 UBDSV4 SAVING " GHOST-NODE FLUX" ON UNIT  70 AT TIME STEP    2, STRESS PERIOD  23
 UBDSV4 SAVING " GHOST-NODE FLUX" ON UNIT  70 AT TIME STEP    2, STRESS PERIOD  23
1
  VOLUMETRIC BUDGET FOR ENTIRE MODEL AT END OF TIME STEP    2 IN STRESS PERIOD     23
  ------------------------------------------------------------------------------

     CUMULATIVE VOLUMES      L**3       RATES FOR THIS TIME STEP      L**3/T
     ------------------                 ------------------------

           IN:                                      IN:
           ---                                      ---
             STORAGE =    18323480.0000               STORAGE =         116.3783
       CONSTANT HEAD =           0.0000         CONSTANT HEAD =           0.0000
     HEAD DEP BOUNDS =     5281428.5000       HEAD DEP BOUNDS =        8542.8496
      STREAM LEAKAGE =    11821638.0000        STREAM LEAKAGE =       20940.9473
                 MNW =       40027.8281                   MNW =         105.8313
          FARM WELLS =           0.0000            FARM WELLS =           0.0000
    FARM  NET  RECH. =    12371827.0000      FARM  NET  RECH. =       16048.1953
     GHOST-NODE FLUX =     4294910.0000       GHOST-NODE FLUX =        6451.2495

            TOTAL IN =    52133312.0000              TOTAL IN =       52205.4531

          OUT:                                     OUT:
          ----                                     ----
             STORAGE =     9100696.0000               STORAGE =       26956.6719
       CONSTANT HEAD =           0.0000         CONSTANT HEAD =           0.0000
     HEAD DEP BOUNDS =    11701631.0000       HEAD DEP BOUNDS =       15814.1309
      STREAM LEAKAGE =      727951.3125        STREAM LEAKAGE =         880.7979
                 MNW =     7366098.5000                   MNW =         105.8313
          FARM WELLS =     7482830.0000            FARM WELLS =        1001.3591
    FARM  NET  RECH. =     2403161.0000      FARM  NET  RECH. =         508.2607
     GHOST-NODE FLUX =    13350946.0000       GHOST-NODE FLUX =        6938.3833

           TOTAL OUT =    52133312.0000             TOTAL OUT =       52205.4375

            IN - OUT =           0.0000              IN - OUT =       1.5625E-02

 PERCENT DISCREPANCY =           0.00     PERCENT DISCREPANCY =           0.00






          TIME SUMMARY AT END OF TIME STEP     2 IN STRESS PERIOD     23
                    SECONDS     MINUTES      HOURS       DAYS        YEARS
                    -----------------------------------------------------------
   TIME STEP LENGTH 1.31414E+06  21902.      365.04      15.210     4.16427E-02
 STRESS PERIOD TIME 2.62829E+06  43805.      730.08      30.420     8.32854E-02
         TOTAL TIME 6.04506E+07 1.00751E+06  16792.      699.66      1.9156    
1
1
                            STRESS PERIOD NO.     24, LENGTH =   30.42000    
                            -----------------------------------------------

                              NUMBER OF TIME STEPS =     2

                               MULTIPLIER FOR DELT =     1.000

                            INITIAL TIME STEP SIZE =   15.21000    

 REUSING NON-PARAMETER GHB CELLS FROM LAST STRESS PERIOD

     92 GHB CELLS

 REUSING STREAM SEGMENT DATA FROM LAST STRESS PERIOD

 REUSING MNW7  FROM LAST STRESS PERIOD

 Parameter:  WELLS1
 WELL NO. LAYER    ROW    COL  F-WELL ID    FARM ID         QMAX         QMAXRESET       
 ----------------------------------------------------------------------------------------
       1      1      5      6          1          1      5.0000E+03              0
       2      1      8      7          2          1      5.0000E+03              0
       3      1      8      9          3          1      5.0000E+03              0
       4      1      5      9          4          2      3.0000E+03              0
       5      1      6     10          5          2      2.0000E+03              0
       6      1      7     11          6          2      1.0000E+03              0
       7      1     18      3          7          3      2.0000E+03              0
       8      1     21      3          8          3      4.0000E+03              0
       9      1     18     19          9          4      3.0000E+03              0
      10      1     21     19         10          4      5.0000E+03              0
      11      0      6      2        -11          5      5.0000E+03              1
      12      0      8      2        -12          5      5.0000E+03              1
      13      0     10      2        -13          5      5.0000E+03              1
      14      0      3     19        -14          6      1.0000E+04              1
      15      0      6     17        -15          6      6.0000E+03              1

 NUMBER OF ACTIVE FARM WELLS:       15

 THE SINGLE LAYER FMP- OR MNW- WELL IN ROW      8 AND COLUMN      7 IS LOCATED IN AN INACTIVE CELL (IBOUND=0) AND HAS BEEN EXCLUDED FROM THE TOTAL MAXIMUM CAPACITY PER FARM

 THE SINGLE LAYER FMP- OR MNW- WELL IN ROW      8 AND COLUMN      9 IS LOCATED IN AN INACTIVE CELL (IBOUND=0) AND HAS BEEN EXCLUDED FROM THE TOTAL MAXIMUM CAPACITY PER FARM

 THE SINGLE LAYER FMP- OR MNW- WELL IN ROW      6 AND COLUMN     10 IS LOCATED IN AN INACTIVE CELL (IBOUND=0) AND HAS BEEN EXCLUDED FROM THE TOTAL MAXIMUM CAPACITY PER FARM

 THE SINGLE LAYER FMP- OR MNW- WELL IN ROW      7 AND COLUMN     11 IS LOCATED IN AN INACTIVE CELL (IBOUND=0) AND HAS BEEN EXCLUDED FROM THE TOTAL MAXIMUM CAPACITY PER FARM

 FARM-ID  NUMBER OF WELLS PER FARM  TOTAL MAX.CAPACITY PER FARM
       1                         1                    5000.0000
       2                         1                    3000.0000
       3                         2                    6000.0000
       4                         2                    8000.0000
       5                         3                   15000.0000
       6                         2                   16000.0000
       7                         0                       0.0000
       8                         0                       0.0000

 READING LIST ON UNIT   20 WITH FILE NAME: C:\MF_OWHM_Release_Package\MF_OWHM_v1_0\examples\test-run-owhm-lgr\fmp-lgr-nwt\DATA_FMP\OFE.in
 LIST SCALING FACTOR= 0.70000    
 (THE SCALE FACTOR WAS APPLIED TO FIELDS   2 -   7)

 Reading list on unit   30

 Reading list on unit   40

  REF. EVAPOTRANSPIRATION =  9.600000E-04

 READING LIST ON UNIT   50 WITH FILE NAME: C:\MF_OWHM_Release_Package\MF_OWHM_v1_0\examples\test-run-owhm-lgr\fmp-lgr-nwt\DATA_FMP\FTE.in

Transpiratory and Evaporative Fractions of Crop Consumptive Use
    % Transpiration % Evap. for Precip. % Evap. for Irrig.
    1          0.000          1.000          0.500
    2          0.000          1.000          0.350
    3          0.957          0.043          0.043
    4          0.125          0.875          0.875
    5          0.926          0.074          0.000
    6          0.200          0.800          0.000

 READING LIST ON UNIT   60 WITH FILE NAME: C:\MF_OWHM_Release_Package\MF_OWHM_v1_0\examples\test-run-owhm-lgr\fmp-lgr-nwt\DATA_FMP\INEFFSW.in

FRACTIONS OF IN-EFFICIENT LOSSES TO SW-RUNOFF FROM 
     PRECIPITATION:  IRRIGATION:
    1          0.500          0.600
    2          0.400          0.300
    3          0.600          0.500
    4          0.700          0.600
    5          0.830          0.000
    6          0.730          0.000

       PRECIPITATION FLUX =  2.100000E-03

 OPENING FILE WITH FILENAME: ./DATA_FMP/NRDV.in
 AND UNIT NUMBER: -170
 READING SCALE FACTOR LIST ON UNIT   80 ASSOCIATED WITH FILE: C:\MF_OWHM_Release_Package\MF_OWHM_v1_0\examples\test-run-owhm-lgr\fmp-lgr-nwt\DATA_FMP\NRDV.in
 FIELD     SCALE FACTOR
     1       1.0000    
     2       1.0000    
     3       1.0000    
     4       1.0000    

UNRANKED LIST OF NON-ROUTED DELIVERIES TO FARMS [L3]:
TYPE:             1

FARM-ID  VOLUME:
      1   1.500E+04
      2   1.500E+04
      3   2.000E+04
      4   1.000E+04
      5   1.000E+04
      6   2.000E+04
      7   0.000E+00
      8   0.000E+00

FARM-ID  PRIORITY RANK OF NRD-TYPE:
      1           1
      2           1
      3           1
      4           1
      5           1
      6           1
      7           1
      8           1

FARM-ID  USE-FLAG:
         0 = SUFFICIENT USE
         1 = ABSOLUTE USE (RECHARGE SURPLUS BACK INTO CANAL)
         2 = ABSOLUTE USE (INJECT SURPLUS INTO FARM-WELLS)
      1           0
      2           0
      3           0
      4           0
      5           0
      6           0
      7           0
      8           0

LIST OF NON-ROUTED DELIVERIES IN RANKED SEQUENCE [L3/T]:

FARM-ID  RATE:
      1   4.931E+02
      2   4.931E+02
      3   6.575E+02
      4   3.287E+02
      5   3.287E+02
      6   6.575E+02
      7   0.000E+00
      8   0.000E+00

FARM-ID  USE-FLAG:
         0 = SUFFICIENT USE
         1 = ABSOLUTE USE (RECHARGE SURPLUS BACK INTO CANAL)
         2 = ABSOLUTE USE (INJECT SURPLUS INTO FARM-WELLS)
      1           0
      2           0
      3           0
      4           0
      5           0
      6           0
      7           0
      8           0

SURFACE-WATER FARM ALLOTMENT HEIGHT [L]:   0.000
 
 SOLVING FOR HEAD 
                                                   Max.-Head-Change                        Max.-Flux-Residual
  Residual-Control   Outer-Iter.   Inner-Iter.     Column Row Layer    Max.-Head-Change    Column Row Layer    Max.-Flux-Residual            L2-New               L2-Old           Solver-Max-Delh
          0                 1           8            20    3     4       0.1468937255E+01       8   10    1      -0.1358146130E+04      0.2970030989E+04      0.1281683367E+00      0.1468937255E+01
          1                 1           0            20    3     4       0.1028256061E+01       8   10    1       0.1989849602E+04      0.4678793128E+04      0.2970030989E+04      0.1468937255E+01
          2                 1           0            20    3     4       0.7197792303E+00       8   10    1       0.1546421173E+04      0.3972092947E+04      0.4678793128E+04      0.1468937255E+01
          3                 1           0            20    3     4       0.5038454526E+00       8   10    1       0.1235126972E+04      0.3541083821E+04      0.3972092947E+04      0.1468937255E+01
          4                 1           0            20    3     4       0.3526918108E+00      14   16    1       0.1192189200E+04      0.3388789467E+04      0.3541083821E+04      0.1468937255E+01
          5                 1           0            20    3     4       0.2468842634E+00      14   16    1       0.1452896333E+04      0.3367538837E+04      0.3388789467E+04      0.1468937255E+01
          6                 1           0            20    3     4       0.1728189814E+00      14   16    1       0.1437734346E+04      0.3315609585E+04      0.3367538837E+04      0.1468937255E+01
          7                 1           0            20    3     4       0.1209732849E+00      14   16    1       0.1426855536E+04      0.3301738811E+04      0.3315609585E+04      0.1468937255E+01
          0                 2           8            20    3     4       0.1288685924E+01      14   16    1       0.1419135449E+04      0.3303262994E+04      0.3301738811E+04      0.1288685924E+01
          0                 3           7            16   16     1       0.4078812810E+00      16   16    1       0.9232978742E+03      0.1567379540E+04      0.3303262994E+04      0.4078812810E+00
                                                   Max.-Head-Change                        Max.-Flux-Residual
  Residual-Control   Outer-Iter.   Inner-Iter.     Column Row Layer    Max.-Head-Change    Column Row Layer    Max.-Flux-Residual            L2-New               L2-Old           Solver-Max-Delh
          0                 4           6            17   16     1       0.1598625934E+00      17   16    1       0.6910220396E+03      0.8236762969E+03      0.1567379540E+04      0.1598625934E+00
          0                 5           5            17   16     1      -0.1359708393E-01      17   16    1      -0.6133831413E+02      0.7219852357E+02      0.8236762969E+03     -0.1359708393E-01
          0                 6           4            17   16     1      -0.7693209151E-03      17   16    1      -0.3362490905E+01      0.7590106170E+01      0.7219852357E+02     -0.7693209151E-03
          0                 7           4             3    7     1       0.1820160551E-03       3    9    1       0.5938806082E+00      0.1589404271E+01      0.7590106170E+01      0.1820160551E-03
          0                 8           3             3    7     1       0.4261419388E-04       3    9    1       0.1414683880E+00      0.3642926523E+00      0.1589404271E+01      0.4261419388E-04

    ------------------------------------------------
       NWT REQUIRED            8 OUTER ITERATIONS 
       AND A TOTAL OF         45 INNER ITERATIONS.
    ------------------------------------------------
                                                   Max.-Head-Change                        Max.-Flux-Residual
  Residual-Control   Outer-Iter.   Inner-Iter.     Column Row Layer    Max.-Head-Change    Column Row Layer    Max.-Flux-Residual            L2-New               L2-Old           Solver-Max-Delh
          0                 1           7            17   16     1      -0.2148250296E+00      17   16    1      -0.5870772769E+03      0.7734865591E+03      0.3642926523E+00     -0.2148250296E+00
          0                 2           6            16   16     1      -0.3240145402E-01      16   16    1      -0.9406142251E+02      0.1338710577E+03      0.7734865591E+03     -0.3240145402E-01
          0                 3           4             8   10     1      -0.1040677849E-02       8   10    1      -0.3439471763E+01      0.5062935061E+01      0.1338710577E+03     -0.1040677849E-02
          0                 4           3            16   16     1      -0.1389199723E-03      17   16    1      -0.3779643039E+00      0.7309439994E+00      0.5062935061E+01     -0.1389199723E-03
          0                 5           2            17   16     1      -0.2599920869E-04      17   16    1      -0.9316496400E-01      0.1325902865E+00      0.7309439994E+00     -0.2599920869E-04

    ------------------------------------------------
       NWT REQUIRED            5 OUTER ITERATIONS 
       AND A TOTAL OF         22 INNER ITERATIONS.
    ------------------------------------------------
                                                   Max.-Head-Change                        Max.-Flux-Residual
  Residual-Control   Outer-Iter.   Inner-Iter.     Column Row Layer    Max.-Head-Change    Column Row Layer    Max.-Flux-Residual            L2-New               L2-Old           Solver-Max-Delh
          0                 1           6            10   11     1       0.6461456087E-01      11   11    1       0.8444600466E+02      0.1413507166E+03      0.1325902865E+00      0.6461456087E-01
          0                 2           6            12   11     1      -0.1391084933E-01      12   11    1      -0.4055782681E+02      0.6798072961E+02      0.1413507166E+03     -0.1391084933E-01
          0                 3           4            12   12     1      -0.8131676906E-03      12   12    1      -0.2528197376E+01      0.4454274045E+01      0.6798072961E+02     -0.8131676906E-03
          0                 4           3            12   12     1      -0.9472208341E-04      12   12    1      -0.3062810347E+00      0.4869693139E+00      0.4454274045E+01     -0.9472208341E-04

    ------------------------------------------------
       NWT REQUIRED            4 OUTER ITERATIONS 
       AND A TOTAL OF         19 INNER ITERATIONS.
    ------------------------------------------------
                                                   Max.-Head-Change                        Max.-Flux-Residual
  Residual-Control   Outer-Iter.   Inner-Iter.     Column Row Layer    Max.-Head-Change    Column Row Layer    Max.-Flux-Residual            L2-New               L2-Old           Solver-Max-Delh
          0                 1           6             9    9     1      -0.4231225213E-01       9    9    1      -0.5227884741E+02      0.7028101509E+02      0.4869693139E+00     -0.4231225213E-01
          0                 2           5             9    9     1       0.3594087811E-02      16   16    1      -0.6709705278E+01      0.1069140279E+02      0.7028101509E+02      0.3594087811E-02
          0                 3           3             9    9     1       0.1855366583E-03       9    9    1       0.2611763226E+00      0.4414268926E+00      0.1069140279E+02      0.1855366583E-03
          0                 4           2             9    9     1       0.9474429481E-05      16   16    1       0.2611224854E-01      0.4152224085E-01      0.4414268926E+00      0.9474429481E-05

    ------------------------------------------------
       NWT REQUIRED            4 OUTER ITERATIONS 
       AND A TOTAL OF         16 INNER ITERATIONS.
    ------------------------------------------------
                                                   Max.-Head-Change                        Max.-Flux-Residual
  Residual-Control   Outer-Iter.   Inner-Iter.     Column Row Layer    Max.-Head-Change    Column Row Layer    Max.-Flux-Residual            L2-New               L2-Old           Solver-Max-Delh
          0                 1           6             9    9     1      -0.3105217598E-01       9    9    1      -0.3425930436E+02      0.4659786869E+02      0.4152224085E-01     -0.3105217598E-01
          0                 2           5             9    9     1       0.2612945617E-02      16   16    1      -0.4430520354E+01      0.6523560558E+01      0.4659786869E+02      0.2612945617E-02
          0                 3           3             9    9     1       0.1362527274E-03       9    9    1       0.1712267597E+00      0.2510648894E+00      0.6523560558E+01      0.1362527274E-03
          0                 4           2             9    9     1       0.6816936143E-05       2    8    1       0.9860297432E-02      0.2650132358E-01      0.2510648894E+00      0.6816936143E-05

    ------------------------------------------------
       NWT REQUIRED            4 OUTER ITERATIONS 
       AND A TOTAL OF         16 INNER ITERATIONS.
    ------------------------------------------------
                                                   Max.-Head-Change                        Max.-Flux-Residual
  Residual-Control   Outer-Iter.   Inner-Iter.     Column Row Layer    Max.-Head-Change    Column Row Layer    Max.-Flux-Residual            L2-New               L2-Old           Solver-Max-Delh
          0                 1           6             9    9     1      -0.1404358310E-01       9    9    1      -0.1333969517E+02      0.2907032046E+02      0.2650132358E-01     -0.1404358310E-01
          0                 2           4             9    9     1       0.1171421935E-02      16   16    1      -0.2594461402E+01      0.3864481816E+01      0.2907032046E+02      0.1171421935E-02
          0                 3           3             9    9     1       0.6163621834E-04       9    9    1       0.6665607414E-01      0.1596171924E+00      0.3864481816E+01      0.6163621834E-04

    ------------------------------------------------
       NWT REQUIRED            3 OUTER ITERATIONS 
       AND A TOTAL OF         13 INNER ITERATIONS.
    ------------------------------------------------
                                                   Max.-Head-Change                        Max.-Flux-Residual
  Residual-Control   Outer-Iter.   Inner-Iter.     Column Row Layer    Max.-Head-Change    Column Row Layer    Max.-Flux-Residual            L2-New               L2-Old           Solver-Max-Delh
          0                 1           5            10   11     1      -0.5880611023E-02      10   11    1      -0.7644146418E+01      0.1741923580E+02      0.1596171924E+00     -0.5880611023E-02
          0                 2           4            16   16     1      -0.5664340138E-03      16   16    1      -0.1407646297E+01      0.2218963279E+01      0.1741923580E+02     -0.5664340138E-03
          0                 3           3            10   11     1       0.2300804862E-04      10   11    1       0.3788507445E-01      0.1044606162E+00      0.2218963279E+01      0.2300804862E-04

    ------------------------------------------------
       NWT REQUIRED            3 OUTER ITERATIONS 
       AND A TOTAL OF         12 INNER ITERATIONS.
    ------------------------------------------------
                                                   Max.-Head-Change                        Max.-Flux-Residual
  Residual-Control   Outer-Iter.   Inner-Iter.     Column Row Layer    Max.-Head-Change    Column Row Layer    Max.-Flux-Residual            L2-New               L2-Old           Solver-Max-Delh
          0                 1           5            10   11     1      -0.3383842985E-02      10   11    1      -0.4466390199E+01      0.1016129436E+02      0.1044606162E+00     -0.3383842985E-02
          0                 2           4            16   16     1      -0.2885596243E-03      16   16    1      -0.7181472422E+00      0.1236489348E+01      0.1016129436E+02     -0.2885596243E-03
          0                 3           2            10   11     1       0.1283117806E-04      12   12    1      -0.2544924174E-01      0.6333858733E-01      0.1236489348E+01      0.1283117806E-04

    ------------------------------------------------
       NWT REQUIRED            3 OUTER ITERATIONS 
       AND A TOTAL OF         11 INNER ITERATIONS.
    ------------------------------------------------
                                                   Max.-Head-Change                        Max.-Flux-Residual
  Residual-Control   Outer-Iter.   Inner-Iter.     Column Row Layer    Max.-Head-Change    Column Row Layer    Max.-Flux-Residual            L2-New               L2-Old           Solver-Max-Delh
          0                 1           5            10   11     1      -0.1575617843E-02       9    9    1       0.2301685279E+01      0.5465372951E+01      0.6333858733E-01     -0.1575617843E-02
          0                 2           3            16   16     1      -0.1397406809E-03      16   16    1      -0.3469835321E+00      0.6442412936E+00      0.5465372951E+01     -0.1397406809E-03
          0                 3           2            10   11     1       0.5670267389E-05      12   11    1      -0.1525004720E-01      0.3550865046E-01      0.6442412936E+00      0.5670267389E-05

    ------------------------------------------------
       NWT REQUIRED            3 OUTER ITERATIONS 
       AND A TOTAL OF         10 INNER ITERATIONS.
    ------------------------------------------------
                                                   Max.-Head-Change                        Max.-Flux-Residual
  Residual-Control   Outer-Iter.   Inner-Iter.     Column Row Layer    Max.-Head-Change    Column Row Layer    Max.-Flux-Residual            L2-New               L2-Old           Solver-Max-Delh
          0                 1           4             9    9     1       0.6462286872E-03       9    9    1       0.1322224197E+01      0.2605741512E+01      0.3550865046E-01      0.6462286872E-03
          0                 2           3            16   16     1      -0.6546975182E-04      16   16    1      -0.1619554572E+00      0.3046628351E+00      0.2605741512E+01     -0.6546975182E-04

    ------------------------------------------------
       NWT REQUIRED            2 OUTER ITERATIONS 
       AND A TOTAL OF          7 INNER ITERATIONS.
    ------------------------------------------------
                                                   Max.-Head-Change                        Max.-Flux-Residual
  Residual-Control   Outer-Iter.   Inner-Iter.     Column Row Layer    Max.-Head-Change    Column Row Layer    Max.-Flux-Residual            L2-New               L2-Old           Solver-Max-Delh
          0                 1           4             9    9     1       0.2246972073E-03      12   10    1      -0.6135955307E+00      0.1110805442E+01      0.3046628351E+00      0.2246972073E-03
          0                 2           2            16   16     1      -0.2813617985E-04      16   16    1      -0.6908972486E-01      0.1294993648E+00      0.1110805442E+01     -0.2813617985E-04

    ------------------------------------------------
       NWT REQUIRED            2 OUTER ITERATIONS 
       AND A TOTAL OF          6 INNER ITERATIONS.
    ------------------------------------------------

 OUTPUT CONTROL FOR STRESS PERIOD     24   TIME STEP     1
    SAVE BUDGET
 UBDSV1 SAVING "         STORAGE" ON UNIT  70 AT TIME STEP    1, STRESS PERIOD  24
 UBDSV2 SAVING "   CONSTANT HEAD" ON UNIT  70 AT TIME STEP    1, STRESS PERIOD  24
 UBDSV1 SAVING "FLOW RIGHT FACE " ON UNIT  70 AT TIME STEP    1, STRESS PERIOD  24
 UBDSV1 SAVING "FLOW FRONT FACE " ON UNIT  70 AT TIME STEP    1, STRESS PERIOD  24
 UBDSV1 SAVING "FLOW LOWER FACE " ON UNIT  70 AT TIME STEP    1, STRESS PERIOD  24
 UBDSV4 SAVING " HEAD DEP BOUNDS" ON UNIT  70 AT TIME STEP    1, STRESS PERIOD  24
 UBDSV4 SAVING "  STREAM LEAKAGE" ON UNIT  70 AT TIME STEP    1, STRESS PERIOD  24



 UBDSV4 SAVING "             MNW" ON UNIT  70 AT TIME STEP    1, STRESS PERIOD  24
 
 
 
 
 
 
 
 
 UBDSV3 SAVING "FARM  NET  RECH." ON UNIT  70 AT TIME STEP    1, STRESS PERIOD  24
 UBDSV4 SAVING " GHOST-NODE FLUX" ON UNIT  70 AT TIME STEP    1, STRESS PERIOD  24
 UBDSV4 SAVING " GHOST-NODE FLUX" ON UNIT  70 AT TIME STEP    1, STRESS PERIOD  24
 UBDSV4 SAVING " GHOST-NODE FLUX" ON UNIT  70 AT TIME STEP    1, STRESS PERIOD  24
 
 SOLVING FOR HEAD 
                                                   Max.-Head-Change                        Max.-Flux-Residual
  Residual-Control   Outer-Iter.   Inner-Iter.     Column Row Layer    Max.-Head-Change    Column Row Layer    Max.-Flux-Residual            L2-New               L2-Old           Solver-Max-Delh
          0                 1           8            20    2     4       0.9928039358E+00      16   16    1       0.8243365841E+03      0.2580168928E+04      0.1294993648E+00      0.9928039358E+00
          0                 2           7            19    3     4      -0.1085823187E+00      17   16    1       0.2362266022E+03      0.3564224056E+03      0.2580168928E+04     -0.1085823187E+00
          0                 3           6            19    3     3      -0.1491947583E-01       2    8    1      -0.2397535644E+02      0.5397927306E+02      0.3564224056E+03     -0.1491947583E-01
          0                 4           5             2    8     3      -0.3779432454E-02       2    8    1      -0.8330601877E+01      0.1500512593E+02      0.5397927306E+02     -0.3779432454E-02
          0                 5           4             2    8     3      -0.1184645675E-02       2    8    1      -0.2635907181E+01      0.4237753895E+01      0.1500512593E+02     -0.1184645675E-02
          0                 6           4             2    8     3      -0.3657015729E-03       2    8    1      -0.8184976673E+00      0.1283253410E+01      0.4237753895E+01     -0.3657015729E-03
          0                 7           3             2    8     3      -0.1119684665E-03       2    8    1      -0.2519904873E+00      0.3896478808E+00      0.1283253410E+01     -0.1119684665E-03
          0                 8           2             2    8     3      -0.3387966384E-04       2    8    1      -0.7739202096E-01      0.1186545524E+00      0.3896478808E+00     -0.3387966384E-04

    ------------------------------------------------
       NWT REQUIRED            8 OUTER ITERATIONS 
       AND A TOTAL OF         39 INNER ITERATIONS.
    ------------------------------------------------
                                                   Max.-Head-Change                        Max.-Flux-Residual
  Residual-Control   Outer-Iter.   Inner-Iter.     Column Row Layer    Max.-Head-Change    Column Row Layer    Max.-Flux-Residual            L2-New               L2-Old           Solver-Max-Delh
          0                 1           7             9    9     2       0.9408592389E-01       9    9    1       0.9773875597E+02      0.2056273112E+03      0.1186545524E+00      0.9408592389E-01
          0                 2           5             9    9     2      -0.8144760387E-02      12   11    1      -0.1790399804E+02      0.3578384250E+02      0.2056273112E+03     -0.8144760387E-02
          0                 3           4            12   12     1       0.5301305215E-03      12   12    1       0.3174153018E+01      0.4169648216E+01      0.3578384250E+02      0.5301305215E-03
          0                 4           3            12   11     1      -0.3686945724E-04      12   11    1      -0.1490709189E+00      0.2141610502E+00      0.4169648216E+01     -0.3686945724E-04

    ------------------------------------------------
       NWT REQUIRED            4 OUTER ITERATIONS 
       AND A TOTAL OF         19 INNER ITERATIONS.
    ------------------------------------------------
                                                   Max.-Head-Change                        Max.-Flux-Residual
  Residual-Control   Outer-Iter.   Inner-Iter.     Column Row Layer    Max.-Head-Change    Column Row Layer    Max.-Flux-Residual            L2-New               L2-Old           Solver-Max-Delh
          0                 1           6             8    5     2       0.1376621276E-01       9    5    1       0.1881316112E+02      0.4478794596E+02      0.2141610502E+00      0.1376621276E-01
          1                 1           0             8    5     2       0.9636348768E-02      12   11    1      -0.4270706862E+02      0.6864953577E+02      0.4478794596E+02      0.1376621276E-01
          0                 2           5            12   11     1      -0.1572447028E-01      12   11    1      -0.4273163883E+02      0.7054934378E+02      0.6864953577E+02     -0.1572447028E-01
          0                 3           4            12   11     1       0.1227951605E-02      12   11    1       0.4026891020E+01      0.7087393262E+01      0.7054934378E+02      0.1227951605E-02
          0                 4           2            12   11     2      -0.3636782875E-04      12   12    1       0.9032813157E-01      0.2244363789E+00      0.7087393262E+01     -0.3636782875E-04

    ------------------------------------------------
       NWT REQUIRED            4 OUTER ITERATIONS 
       AND A TOTAL OF         17 INNER ITERATIONS.
    ------------------------------------------------
                                                   Max.-Head-Change                        Max.-Flux-Residual
  Residual-Control   Outer-Iter.   Inner-Iter.     Column Row Layer    Max.-Head-Change    Column Row Layer    Max.-Flux-Residual            L2-New               L2-Old           Solver-Max-Delh
          0                 1           6             9    9     2      -0.2601650944E-01       9    9    1      -0.3108097545E+02      0.4434189115E+02      0.2244363789E+00     -0.2601650944E-01
          0                 2           5             9    9     2       0.2218978531E-02       9    9    1       0.3105484044E+01      0.4576684041E+01      0.4434189115E+02      0.2218978531E-02
          0                 3           3             9    9     2       0.1136865295E-03       9    9    1       0.1551054319E+00      0.2419827330E+00      0.4576684041E+01      0.1136865295E-03
          0                 4           2             9    9     2       0.5819403632E-05       2    6    1       0.9570377413E-02      0.2262985354E-01      0.2419827330E+00      0.5819403632E-05

    ------------------------------------------------
       NWT REQUIRED            4 OUTER ITERATIONS 
       AND A TOTAL OF         16 INNER ITERATIONS.
    ------------------------------------------------
                                                   Max.-Head-Change                        Max.-Flux-Residual
  Residual-Control   Outer-Iter.   Inner-Iter.     Column Row Layer    Max.-Head-Change    Column Row Layer    Max.-Flux-Residual            L2-New               L2-Old           Solver-Max-Delh
          0                 1           6             9    9     1      -0.1996735793E-01       9    9    1      -0.2257471937E+02      0.3561322775E+02      0.2262985354E-01     -0.1996735793E-01
          0                 2           4             9    9     1       0.1684339615E-02       9    9    1       0.2255166480E+01      0.3530339142E+01      0.3561322775E+02      0.1684339615E-02
          0                 3           3             9    9     1       0.8724889824E-04       9    9    1       0.1129319560E+00      0.1847052255E+00      0.3530339142E+01      0.8724889824E-04

    ------------------------------------------------
       NWT REQUIRED            3 OUTER ITERATIONS 
       AND A TOTAL OF         13 INNER ITERATIONS.
    ------------------------------------------------
                                                   Max.-Head-Change                        Max.-Flux-Residual
  Residual-Control   Outer-Iter.   Inner-Iter.     Column Row Layer    Max.-Head-Change    Column Row Layer    Max.-Flux-Residual            L2-New               L2-Old           Solver-Max-Delh
          0                 1           5             9    9     1      -0.9795832925E-02       9    9    1      -0.9945844138E+01      0.2129821265E+02      0.1847052255E+00     -0.9795832925E-02
          0                 2           4             9    9     1       0.8227643986E-03       9    9    1       0.9940908150E+00      0.2133391521E+01      0.2129821265E+02      0.8227643986E-03
          0                 3           3             9    9     1       0.4323732364E-04       9    9    1       0.5037095799E-01      0.1151370699E+00      0.2133391521E+01      0.4323732364E-04

    ------------------------------------------------
       NWT REQUIRED            3 OUTER ITERATIONS 
       AND A TOTAL OF         12 INNER ITERATIONS.
    ------------------------------------------------
                                                   Max.-Head-Change                        Max.-Flux-Residual
  Residual-Control   Outer-Iter.   Inner-Iter.     Column Row Layer    Max.-Head-Change    Column Row Layer    Max.-Flux-Residual            L2-New               L2-Old           Solver-Max-Delh
          0                 1           5             8    5     1      -0.4266528471E-02       8    5    1      -0.3660196493E+01      0.1118437483E+02      0.1151370699E+00     -0.4266528471E-02
          0                 2           4             8    5     1       0.3681988888E-03       8    5    1       0.3657193364E+00      0.1135197453E+01      0.1118437483E+02      0.3681988888E-03
          0                 3           2             8    5     1       0.1833705382E-04       8    5    1       0.1802829059E-01      0.6131870497E-01      0.1135197453E+01      0.1833705382E-04

    ------------------------------------------------
       NWT REQUIRED            3 OUTER ITERATIONS 
       AND A TOTAL OF         11 INNER ITERATIONS.
    ------------------------------------------------
                                                   Max.-Head-Change                        Max.-Flux-Residual
  Residual-Control   Outer-Iter.   Inner-Iter.     Column Row Layer    Max.-Head-Change    Column Row Layer    Max.-Flux-Residual            L2-New               L2-Old           Solver-Max-Delh
          0                 1           5             8    5     1      -0.2155003845E-02       7    5    1      -0.1911137342E+01      0.5727552312E+01      0.6131870497E-01     -0.2155003845E-02
          0                 2           4             8    5     1       0.1860816320E-03       7    5    1       0.1911704995E+00      0.5837017714E+00      0.5727552312E+01      0.1860816320E-03
          0                 3           2             8    5     1       0.9338176859E-05       7    5    1       0.9309079440E-02      0.3200224840E-01      0.5837017714E+00      0.9338176859E-05

    ------------------------------------------------
       NWT REQUIRED            3 OUTER ITERATIONS 
       AND A TOTAL OF         11 INNER ITERATIONS.
    ------------------------------------------------
                                                   Max.-Head-Change                        Max.-Flux-Residual
  Residual-Control   Outer-Iter.   Inner-Iter.     Column Row Layer    Max.-Head-Change    Column Row Layer    Max.-Flux-Residual            L2-New               L2-Old           Solver-Max-Delh
          0                 1           4             7    5     1      -0.9214945158E-03       9    9    1       0.1279296726E+01      0.2915205797E+01      0.3200224840E-01     -0.9214945158E-03
          0                 2           3             7    5     1       0.7944109175E-04       9    9    1      -0.1279256587E+00      0.2960345129E+00      0.2915205797E+01      0.7944109175E-04

    ------------------------------------------------
       NWT REQUIRED            2 OUTER ITERATIONS 
       AND A TOTAL OF          7 INNER ITERATIONS.
    ------------------------------------------------
                                                   Max.-Head-Change                        Max.-Flux-Residual
  Residual-Control   Outer-Iter.   Inner-Iter.     Column Row Layer    Max.-Head-Change    Column Row Layer    Max.-Flux-Residual            L2-New               L2-Old           Solver-Max-Delh
          0                 1           4             9    9     1       0.4320103604E-03       9    9    1       0.8263827517E+00      0.1370609392E+01      0.2960345129E+00      0.4320103604E-03
          0                 2           3             9    9     1      -0.3752007761E-04       9    9    1      -0.8257674205E-01      0.1383541370E+00      0.1370609392E+01     -0.3752007761E-04

    ------------------------------------------------
       NWT REQUIRED            2 OUTER ITERATIONS 
       AND A TOTAL OF          7 INNER ITERATIONS.
    ------------------------------------------------
                                                   Max.-Head-Change                        Max.-Flux-Residual
  Residual-Control   Outer-Iter.   Inner-Iter.     Column Row Layer    Max.-Head-Change    Column Row Layer    Max.-Flux-Residual            L2-New               L2-Old           Solver-Max-Delh
          0                 1           3             9    9     1       0.1807240306E-03       9    9    1       0.3522163534E+00      0.5908709637E+00      0.1383541370E+00      0.1807240306E-03
          0                 2           2             9    9     1      -0.1588787941E-04       9    9    1      -0.3553108411E-01      0.6043052168E-01      0.5908709637E+00     -0.1588787941E-04

    ------------------------------------------------
       NWT REQUIRED            2 OUTER ITERATIONS 
       AND A TOTAL OF          5 INNER ITERATIONS.
    ------------------------------------------------

 OUTPUT CONTROL FOR STRESS PERIOD     24   TIME STEP     2
    PRINT BUDGET
    SAVE HEAD FOR ALL LAYERS
    SAVE BUDGET
 UBDSV1 SAVING "         STORAGE" ON UNIT  70 AT TIME STEP    2, STRESS PERIOD  24
 UBDSV2 SAVING "   CONSTANT HEAD" ON UNIT  70 AT TIME STEP    2, STRESS PERIOD  24
 UBDSV1 SAVING "FLOW RIGHT FACE " ON UNIT  70 AT TIME STEP    2, STRESS PERIOD  24
 UBDSV1 SAVING "FLOW FRONT FACE " ON UNIT  70 AT TIME STEP    2, STRESS PERIOD  24
 UBDSV1 SAVING "FLOW LOWER FACE " ON UNIT  70 AT TIME STEP    2, STRESS PERIOD  24
 UBDSV4 SAVING " HEAD DEP BOUNDS" ON UNIT  70 AT TIME STEP    2, STRESS PERIOD  24
 UBDSV4 SAVING "  STREAM LEAKAGE" ON UNIT  70 AT TIME STEP    2, STRESS PERIOD  24



 UBDSV4 SAVING "             MNW" ON UNIT  70 AT TIME STEP    2, STRESS PERIOD  24
 
 
 
 
 
 
 
 
 UBDSV3 SAVING "FARM  NET  RECH." ON UNIT  70 AT TIME STEP    2, STRESS PERIOD  24
 UBDSV4 SAVING " GHOST-NODE FLUX" ON UNIT  70 AT TIME STEP    2, STRESS PERIOD  24
 UBDSV4 SAVING " GHOST-NODE FLUX" ON UNIT  70 AT TIME STEP    2, STRESS PERIOD  24
 UBDSV4 SAVING " GHOST-NODE FLUX" ON UNIT  70 AT TIME STEP    2, STRESS PERIOD  24

 HEAD WILL BE SAVED ON UNIT   22 AT END OF TIME STEP     2, STRESS PERIOD     24
1
  VOLUMETRIC BUDGET FOR ENTIRE MODEL AT END OF TIME STEP    2 IN STRESS PERIOD     24
  ------------------------------------------------------------------------------

     CUMULATIVE VOLUMES      L**3       RATES FOR THIS TIME STEP      L**3/T
     ------------------                 ------------------------

           IN:                                      IN:
           ---                                      ---
             STORAGE =    18323480.0000               STORAGE =           0.0000
       CONSTANT HEAD =           0.0000         CONSTANT HEAD =           0.0000
     HEAD DEP BOUNDS =     5527140.5000       HEAD DEP BOUNDS =        7926.7476
      STREAM LEAKAGE =    12434517.0000        STREAM LEAKAGE =       18933.9883
                 MNW =       43257.2188                   MNW =         111.0158
          FARM WELLS =           0.0000            FARM WELLS =           0.0000
    FARM  NET  RECH. =    13453247.0000      FARM  NET  RECH. =       35366.4727
     GHOST-NODE FLUX =     4518967.5000       GHOST-NODE FLUX =        7503.8740

            TOTAL IN =    54300608.0000              TOTAL IN =       69842.1016

          OUT:                                     OUT:
          ----                                     ----
             STORAGE =    10536908.0000               STORAGE =       45549.6758
       CONSTANT HEAD =           0.0000         CONSTANT HEAD =           0.0000
     HEAD DEP BOUNDS =    12196665.0000       HEAD DEP BOUNDS =       16416.9648
      STREAM LEAKAGE =      766649.1875        STREAM LEAKAGE =        1422.9703
                 MNW =     7369328.0000                   MNW =         111.0158
          FARM WELLS =     7482830.0000            FARM WELLS =           0.0000
    FARM  NET  RECH. =     2406008.2500      FARM  NET  RECH. =         128.1560
     GHOST-NODE FLUX =    13542223.0000       GHOST-NODE FLUX =        6213.3115

           TOTAL OUT =    54300612.0000             TOTAL OUT =       69842.0938

            IN - OUT =          -4.0000              IN - OUT =       7.8125E-03

 PERCENT DISCREPANCY =          -0.00     PERCENT DISCREPANCY =           0.00






          TIME SUMMARY AT END OF TIME STEP     2 IN STRESS PERIOD     24
                    SECONDS     MINUTES      HOURS       DAYS        YEARS
                    -----------------------------------------------------------
   TIME STEP LENGTH 1.31414E+06  21902.      365.04      15.210     4.16427E-02
 STRESS PERIOD TIME 2.62829E+06  43805.      730.08      30.420     8.32854E-02
         TOTAL TIME 6.30789E+07 1.05132E+06  17522.      730.08      1.9989    
1
