
                       OWHM 1.0
    U.S. GEOLOGICAL SURVEY MODULAR FINITE-DIFFERENCE 
         ONE-WATER HYDROLOGIC-FLOW MODEL [OWHM]
              Version 1.0.0   11/05/2014

 INCLUDES:
          MODFLOW-2005 Version 1.11.0  08/08/2013
          FMP          Version 3.0.0   08/01/2014
          SWR          Version 1.03.0  09/24/2013
          SWI          Version 2.0.0   07/22/2013
          LGR          Version 2.0.0   09/19/2013
          NWT          Version 1.0.9   07/01/2014


 LIST FILE: ../../test-out-owhm-lgr/fmp-lgr-nwt/OWHM_EX2_child2.lst
                         UNIT  712

 OPENING OWHM_EX2_child2.upw
 FILE TYPE:UPW   UNIT  912   STATUS:OLD    
 FORMAT:FORMATTED              ACCESS:SEQUENTIAL          

 OPENING OWHM_EX2_child2.ba6
 FILE TYPE:BAS6   UNIT 1012   STATUS:OLD    
 FORMAT:FORMATTED              ACCESS:SEQUENTIAL          

 OPENING OWHM_EX2_child2.dis
 FILE TYPE:DIS   UNIT 1112   STATUS:OLD    
 FORMAT:FORMATTED              ACCESS:SEQUENTIAL          
#fmp           1212 OWHM_EX2_child2.fmp   --> No file present for this as this child is not using fmp                                                                                                                                                                                                                                                                                                                                                                                                                                                                                                                                                                                                                       

 OPENING OWHM_EX2_child2.oc
 FILE TYPE:OC   UNIT 1912   STATUS:OLD    
 FORMAT:FORMATTED              ACCESS:SEQUENTIAL          
# Solvers                                                                                                                                                                                                                                                                                                                                                                                                                                                                                                                                                                                                                                                                                                                   

 OPENING OWHM_EX2.nwt
 FILE TYPE:NWT   UNIT 1812   STATUS:OLD    
 FORMAT:FORMATTED              ACCESS:SEQUENTIAL          
#                                                                                                                                                                                                                                                                                                                                                                                                                                                                                                                                                                                                                                                                                                                           

 OPENING ../../test-out-owhm-lgr/fmp-lgr-nwt/OWHM_EX2_child2.hed
 FILE TYPE:DATA   UNIT 2212   STATUS:UNKNOWN
 FORMAT:FORMATTED              ACCESS:SEQUENTIAL          
#FMP Datafiles                                                                                                                                                                                                                                                                                                                                                                                                                                                                                                                                                                                                                                                                                                              
#data          2012 OFE.in                                                                                                                                                                                                                                                                                                                                                                                                                                                                                                                                                                                                                                                                                                  
#data          3012 ROOT.in                                                                                                                                                                                                                                                                                                                                                                                                                                                                                                                                                                                                                                                                                                 
#data          4012 KC.in                                                                                                                                                                                                                                                                                                                                                                                                                                                                                                                                                                                                                                                                                                   
#data          5012 FTE.in                                                                                                                                                                                                                                                                                                                                                                                                                                                                                                                                                                                                                                                                                                  
#data          6012 INEFFSW.in                                                                                                                                                                                                                                                                                                                                                                                                                                                                                                                                                                                                                                                                                              
#DATA          8012 NRDFAC.in                                                                                                                                                                                                                                                                                                                                                                                                                                                                                                                                                                                                                                                                                               
#                                                                                                                                                                                                                                                                                                                                                                                                                                                                                                                                                                                                                                                                                                                           

 OPENING ../../test-out-owhm-lgr/fmp-lgr-nwt/CBC_child2.OUT
 FILE TYPE:DATA(BINARY)   UNIT 7012   STATUS:UNKNOWN
 FORMAT:UNFORMATTED            ACCESS:STREAM              

 OPENING ../../test-out-owhm-lgr/fmp-lgr-nwt/OWHM_EX2_child_bfh2.hed
 FILE TYPE:DATA   UNIT 5912   STATUS:UNKNOWN
 FORMAT:FORMATTED              ACCESS:SEQUENTIAL          

 OPENING ../../test-out-owhm-lgr/fmp-lgr-nwt/OWHM_EX2_child_bfh2.flw
 FILE TYPE:DATA   UNIT 6912   STATUS:UNKNOWN
 FORMAT:FORMATTED              ACCESS:SEQUENTIAL          

 BAS -- BASIC PACKAGE, VERSION 7, 5/2/2005 INPUT READ FROM UNIT 1012
 
 MODFLOW was compiled using mixed precision
 Precision of REAL variables:           6
 Precision of DOUBLE PRECISION variables:          15

 DISCRETIZATION INPUT DATA READ FROM UNIT 1112
 # generic model 1 transient discretization file

*** DIS COORDINATE SYSTEM NOT SEPECIFIED ***
DEFAULT VALUES APPLIED ARE 0° ROTATION
WITH THE ORIGIN (0,0) LOCATED AT THE MODEL'S LOWER LEFT CORNER


    4 LAYERS         3 ROWS        12 COLUMNS
     24 STRESS PERIOD(S) IN SIMULATION
 MODEL TIME UNIT IS DAYS
 MODEL LENGTH UNIT IS METERS
  Confining bed flag for each layer:
   1   1   1   0

                     DELR =   166.667    

                     DELC =   166.667    

 OPENING FILE ON UNIT   99:
 ./DATA_FMP/GSE_child2.in                                                                                                                                                                                                                                                                                                                                                                                                                                                                                                                                                                                                                                                                                                    



           TOP ELEVATION OF LAYER 1
 READING ON UNIT   99 WITH FORMAT: (FREE)              

   MODEL LAYER BOTTOM EL. =   205.000     FOR LAYER   1

 BOT. EL. OF QUASI-3D BED =   200.000     FOR LAYER   1

   MODEL LAYER BOTTOM EL. =   140.000     FOR LAYER   2

 BOT. EL. OF QUASI-3D BED =   125.000     FOR LAYER   2

   MODEL LAYER BOTTOM EL. =   65.0000     FOR LAYER   3

 BOT. EL. OF QUASI-3D BED =   60.0000     FOR LAYER   3

   MODEL LAYER BOTTOM EL. =   0.00000     FOR LAYER   4


 STRESS PERIOD     LENGTH       TIME STEPS     MULTIPLIER FOR DELT    SS FLAG
 ----------------------------------------------------------------------------
        1         30.42000          2                    1.000         TR
        2         30.42000          2                    1.000         TR
        3         30.42000          2                    1.000         TR
        4         30.42000          2                    1.000         TR
        5         30.42000          2                    1.000         TR
        6         30.42000          2                    1.000         TR
        7         30.42000          2                    1.000         TR
        8         30.42000          2                    1.000         TR
        9         30.42000          2                    1.000         TR
       10         30.42000          2                    1.000         TR
       11         30.42000          2                    1.000         TR
       12         30.42000          2                    1.000         TR
       13         30.42000          2                    1.000         TR
       14         30.42000          2                    1.000         TR
       15         30.42000          2                    1.000         TR
       16         30.42000          2                    1.000         TR
       17         30.42000          2                    1.000         TR
       18         30.42000          2                    1.000         TR
       19         30.42000          2                    1.000         TR
       20         30.42000          2                    1.000         TR
       21         30.42000          2                    1.000         TR
       22         30.42000          2                    1.000         TR
       23         30.42000          2                    1.000         TR
       24         30.42000          2                    1.000         TR

 TRANSIENT SIMULATION



 
 # generic model 1                                                               
 THE FREE FORMAT OPTION HAS BEEN SELECTED

 THE MAX STORAGE FOR PROPERTIES DEFINED BY PARAMETERS IS: 
 MAX STORAGE OF PARAMETERS (MXPAR)  IS       2000
 MAX STORAGE OF INSTANCES  (MXINST) IS      50000
 MAX STORAGE OF CLUSTERS   (MXCLST) IS    2000000

 CALCULATE FLOW BETWEEN ADJACENT CONSTANT-HEAD CELLS

 OPENING FILE ON UNIT   99:
 OWHM_EX2_child2.ib                                                                                                                                                                                                                                                                                                                                                                                                                                                                                                                                                                                                                                                                                                          



                     BOUNDARY ARRAY FOR LAYER   1
 READING ON UNIT   99 WITH FORMAT: (FREE)              

 OPENING FILE ON UNIT   99:
 OWHM_EX2_child2.ib                                                                                                                                                                                                                                                                                                                                                                                                                                                                                                                                                                                                                                                                                                          



                     BOUNDARY ARRAY FOR LAYER   2
 READING ON UNIT   99 WITH FORMAT: (FREE)              

 OPENING FILE ON UNIT   99:
 OWHM_EX2_child2.ib                                                                                                                                                                                                                                                                                                                                                                                                                                                                                                                                                                                                                                                                                                          



                     BOUNDARY ARRAY FOR LAYER   3
 READING ON UNIT   99 WITH FORMAT: (FREE)              

 OPENING FILE ON UNIT   99:
 OWHM_EX2_child2.ib                                                                                                                                                                                                                                                                                                                                                                                                                                                                                                                                                                                                                                                                                                          



                     BOUNDARY ARRAY FOR LAYER   4
 READING ON UNIT   99 WITH FORMAT: (FREE)              

CHECKING FOR VALID MODEL DIMENIONS FOR DELR, DELC, AND THICKNESS


 AQUIFER HEAD WILL BE SET TO  -333.00     AT ALL NO-FLOW NODES (IBOUND=0).

             INITIAL HEAD =   0.00000     FOR LAYER   1

             INITIAL HEAD =   0.00000     FOR LAYER   2

             INITIAL HEAD =   0.00000     FOR LAYER   3

             INITIAL HEAD =   0.00000     FOR LAYER   4

 OUTPUT CONTROL IS SPECIFIED ONLY AT TIME STEPS FOR WHICH OUTPUT IS DESIRED
 HEADS WILL BE SAVED WITH FORMAT: (100F8.2)           
 SAVED HEADS WILL BE LABELED
 COMPACT CELL-BY-CELL BUDGET FILES WILL BE WRITTEN
 HEAD PRINT FORMAT CODE IS  -3    DRAWDOWN PRINT FORMAT CODE IS   0
 HEADS WILL BE SAVED ON UNIT 2212    DRAWDOWNS WILL BE SAVED ON UNIT    0  WATER BUDGETs WILL BE SAVED ON UNIT 

 LGR2 -- LOCAL GRID REFINEMENT, VERSION 2.0, 06/25/2013
        INPUT READ FOR MODEL  3 DEFINED BY NAME FILE OWHM_EX2_child2.nam

 LOCAL GRID REFINEMENT IS ACTIVE FOR CHILD ONLY
               STARTING HEADS FROM PARENT WILL BE USED: ISHFLG =   1
               VALUE IN IBOUND INDICATING BOUNDARY INTERFACE = 4912
               BOUNDARY HEADS WILL BE SAVED ON UNIT  5912
               BOUNDARY FLUXES WILL BE SAVED ON UNIT  6912
               MAX NUMBER OF LGR ITERATIONS = 30
               LGR ITERATION RESULTS WRITTEN TO SCREEN: IOUTLGR =  -1

               WEIGHTING FACTORS FOR RELAXATION
               RELAXH(HEAD) RELAXF(FLUX)
               -------------------------
               0.500E+00      0.500E+00

               CLOSURE CRITERIA FOR LGR ITERATIONS
               HCLOSELGR       FCLOSELGR
               -------------------------
               5.000E-04      1.000E+00

               STARTING LAYER, ROW, COLUMN=   1,  18,  10
               ENDING LAYER, ROW, COLUMN=     4,  18,  13
               NCPP: NUMBER OF CHILD CELLS PER WIDTH OF PARENT CELL= 3
               NCPPL: NUMBER OF CHILD LAYERS IN LAYER  1 OF PARENT = 1
               NCPPL: NUMBER OF CHILD LAYERS IN LAYER  2 OF PARENT = 1
               NCPPL: NUMBER OF CHILD LAYERS IN LAYER  3 OF PARENT = 1
               NCPPL: NUMBER OF CHILD LAYERS IN LAYER  4 OF PARENT = 1
 # NWT: Newton Solver file created on 3/20/2013 by ModelMuse version 2.18.1.0.

 NWT1 -- Newton Solver, VERSION 1.0.9, 07/01/2014
         INPUT READ FROM UNIT 1812

 COMPLEX OPTION:
 DEFAULT SOLVER INPUT VALUES REFLECT STRONGLY NONLINEAR MODEL
 ***GMRES linear solver will be used***
 
   CONVERGENCE CRITERION OF   0.100000E-03 FOR HEAD SOLUTION
   AND A TOLERANCE OF   0.500000E+03 FOR FLOW SOLUTION AND 
   A MAXIMUM OF   100 OUTER ITERATIONS. 


   D-B-D REDUCTION FACTOR OF    0.850000E+00 AND 
   A D-B-D INCREASE FACTOR OF    0.100000E-04 AND 
   A D-B-D RELAXATION OF    0.000000E+00 AND 
   A MOMENTUM FACTOR OF    0.100000E+00 .


   BACKTRACKING IS ACTIVE 
   THE MAXIMUM NUMBER OF BACKTRACKS IS    50 AND 
   THE BACKTRACKING TOLERANCE IS    0.110000E+01 AND
   THE BACKTRACKING REDUCTION FACTOR IS    0.700000E+00

 GMRES -- LINEAR SOLUTION BY GMRES PACKAGE 
     UNIT:  1812
     adapted for HYDROTHERM by Kipp and others (2008)
     using software originally developed by Saad (1990)
     using algorithms described in Saad (2003)

 UPW1 -- UPSTREAM WEIGHTING FLOW PACKAGE, VERSION 1.0.6, 12/05/2012
         INPUT READ FROM UNIT912

 CELL-BY-CELL FLOWS WILL BE SAVED ON UNIT 7012
 No named parameters

   LAYER FLAGS:
 LAYER       LAYTYP          LAYAVG    CHANI           LAYVKA           LAYWET
 ---------------------------------------------------------------------------
    1             1             0     1.000E+00             1             0
    2             0             0     1.000E+00             1             0
    3             0             0     1.000E+00             1             0
    4             0             0     1.000E+00             1             0

   INTERPRETATION OF LAYER FLAGS:
                        INTERBLOCK     HORIZONTAL    DATA IN
         LAYER TYPE   TRANSMISSIVITY   ANISOTROPY   ARRAY VKA   WETTABILITY
 LAYER   (LAYTYP)        (LAYAVG)      (CHANI)     (LAYVKA)       (LAYWET)
 ---------------------------------------------------------------------------
    1   CONVERTIBLE      HARMONIC     1.000E+00    ANISOTROPY  NON-WETTABLE
    2      CONFINED      HARMONIC     1.000E+00    ANISOTROPY  NON-WETTABLE
    3      CONFINED      HARMONIC     1.000E+00    ANISOTROPY  NON-WETTABLE
    4      CONFINED      HARMONIC     1.000E+00    ANISOTROPY  NON-WETTABLE

    HYD. COND. ALONG ROWS =   10.0000     FOR LAYER   1

  HORIZ. TO VERTICAL ANI. =   1.00000     FOR LAYER   1

         SPECIFIC STORAGE =  1.000000E-05 FOR LAYER   1

           SPECIFIC YIELD =  2.000000E-02 FOR LAYER   1

 QUASI3D VERT. HYD. COND. =  2.000000E-03 FOR LAYER   1

    HYD. COND. ALONG ROWS =   1.50000     FOR LAYER   2

  HORIZ. TO VERTICAL ANI. =   1.00000     FOR LAYER   2

         SPECIFIC STORAGE =  1.000000E-05 FOR LAYER   2

 QUASI3D VERT. HYD. COND. =  1.000000E-03 FOR LAYER   2

    HYD. COND. ALONG ROWS =   1.00000     FOR LAYER   3

  HORIZ. TO VERTICAL ANI. =   1.00000     FOR LAYER   3

         SPECIFIC STORAGE =  1.000000E-05 FOR LAYER   3

 QUASI3D VERT. HYD. COND. =  5.000000E-04 FOR LAYER   3

    HYD. COND. ALONG ROWS =  0.150000     FOR LAYER   4

  HORIZ. TO VERTICAL ANI. =   1.00000     FOR LAYER   4

         SPECIFIC STORAGE =  1.000000E-05 FOR LAYER   4
1
                            STRESS PERIOD NO.      1, LENGTH =   30.42000    
                            -----------------------------------------------

                              NUMBER OF TIME STEPS =     2

                               MULTIPLIER FOR DELT =     1.000

                            INITIAL TIME STEP SIZE =   15.21000    

PARAMETERS HAVE BEEN USED IN PACKAGES
THE CURRENT STORAGE FOR PARAMETERS IS: 
# PARAMETER=         0 WITH MAX STORAGE (MXPAR)  OF      2000
# INSTANCES=         0 WITH MAX STORAGE (MXINST) OF     50000
# CLUSTERS =         0 WITH MAX STORAGE (MXCLST) OF   2000000
YOU CAN INCREASE/DECREASE STORAGE WITH BAS OPTION:
MAXPARAM  MXPAR  MXCLST MXINST
 
 SOLVING FOR HEAD 
                                                   Max.-Head-Change                        Max.-Flux-Residual
  Residual-Control   Outer-Iter.   Inner-Iter.     Column Row Layer    Max.-Head-Change    Column Row Layer    Max.-Flux-Residual            L2-New               L2-Old           Solver-Max-Delh
          0                 1           7             6    2     1      -0.1186058969E+02       3    1    1      -0.3784207775E+04      0.1819865468E+05      0.0000000000E+00     -0.1186058969E+02
          0                 2           7             7    1     1       0.5982410197E+00      12    1    1       0.3926682297E+03      0.1563310050E+04      0.1819865468E+05      0.5982410197E+00
          0                 3           5             7    1     1       0.4594468642E-01      12    1    1       0.2791634863E+02      0.1152609830E+03      0.1563310050E+04      0.4594468642E-01
          0                 4           4             7    3     1       0.3524187296E-02      12    1    1       0.1960692435E+01      0.8550834910E+01      0.1152609830E+03      0.3524187296E-02
          0                 5           3             7    1     1       0.2714901661E-03       6    1    1       0.1456071888E+00      0.6350865980E+00      0.8550834910E+01      0.2714901661E-03
          0                 6           2             7    3     1       0.2017198637E-04       7    3    1       0.1492800703E-01      0.4467625045E-01      0.6350865980E+00      0.2017198637E-04

    ------------------------------------------------
       NWT REQUIRED            6 OUTER ITERATIONS 
       AND A TOTAL OF         28 INNER ITERATIONS.
    ------------------------------------------------
                                                   Max.-Head-Change                        Max.-Flux-Residual
  Residual-Control   Outer-Iter.   Inner-Iter.     Column Row Layer    Max.-Head-Change    Column Row Layer    Max.-Flux-Residual            L2-New               L2-Old           Solver-Max-Delh
          0                 1           7             7    3     1      -0.6040315570E+01       1    3    1      -0.3130905159E+04      0.1150657325E+05      0.4467625045E-01     -0.6040315570E+01
          0                 2           6             7    3     1       0.3509730461E+00       1    3    1       0.2483039547E+03      0.8141448082E+03      0.1150657325E+05      0.3509730461E+00
          0                 3           5             6    3     1       0.2714418233E-01       1    3    1       0.1753888396E+02      0.6120394435E+02      0.8141448082E+03      0.2714418233E-01
          0                 4           4             6    3     1       0.2098450365E-02       1    3    1       0.1240387679E+01      0.4605387406E+01      0.6120394435E+02      0.2098450365E-02
          0                 5           3             7    3     1       0.1618599300E-03       1    3    1       0.8926481847E-01      0.3450365083E+00      0.4605387406E+01      0.1618599300E-03
          0                 6           2             7    3     1       0.1806441884E-04       1    3    1       0.1342795690E-01      0.4026578353E-01      0.3450365083E+00      0.1806441884E-04

    ------------------------------------------------
       NWT REQUIRED            6 OUTER ITERATIONS 
       AND A TOTAL OF         27 INNER ITERATIONS.
    ------------------------------------------------
                                                   Max.-Head-Change                        Max.-Flux-Residual
  Residual-Control   Outer-Iter.   Inner-Iter.     Column Row Layer    Max.-Head-Change    Column Row Layer    Max.-Flux-Residual            L2-New               L2-Old           Solver-Max-Delh
          0                 1           7             7    3     1      -0.2209479331E+01       1    3    1      -0.1305475706E+04      0.4394460185E+04      0.4026578353E-01     -0.2209479331E+01
          0                 2           6             6    3     2       0.1485390700E+00       1    3    1       0.9957435461E+02      0.3112871938E+03      0.4394460185E+04      0.1485390700E+00
          0                 3           5             7    3     1       0.1008337309E-01       1    3    1       0.7013455312E+01      0.2337089042E+02      0.3112871938E+03      0.1008337309E-01
          0                 4           4             6    3     1       0.7855982385E-03       1    3    1       0.4987438001E+00      0.1763175240E+01      0.2337089042E+02      0.7855982385E-03
          0                 5           3             6    1     1       0.6314467975E-04       1    1    1       0.3839909844E-01      0.1340834548E+00      0.1763175240E+01      0.6314467975E-04

    ------------------------------------------------
       NWT REQUIRED            5 OUTER ITERATIONS 
       AND A TOTAL OF         25 INNER ITERATIONS.
    ------------------------------------------------
                                                   Max.-Head-Change                        Max.-Flux-Residual
  Residual-Control   Outer-Iter.   Inner-Iter.     Column Row Layer    Max.-Head-Change    Column Row Layer    Max.-Flux-Residual            L2-New               L2-Old           Solver-Max-Delh
          0                 1           7             7    1     1      -0.8429387262E+00       1    1    1      -0.5812255052E+03      0.1809031612E+04      0.1340834548E+00     -0.8429387262E+00
          0                 2           5             6    1     2       0.6065447925E-01       1    1    1       0.4419868649E+02      0.1288275597E+03      0.1809031612E+04      0.6065447925E-01
          0                 3           4             7    1     1       0.3854316672E-02       1    1    1       0.3091213517E+01      0.9611727562E+01      0.1288275597E+03      0.3854316672E-02
          0                 4           3             6    1     1       0.3042196105E-03       1    3    1       0.2199592208E+00      0.7259944650E+00      0.9611727562E+01      0.3042196105E-03
          0                 5           2             8    3     1       0.2565628355E-04       1    3    1       0.1904896362E-01      0.5467223673E-01      0.7259944650E+00      0.2565628355E-04

    ------------------------------------------------
       NWT REQUIRED            5 OUTER ITERATIONS 
       AND A TOTAL OF         21 INNER ITERATIONS.
    ------------------------------------------------
                                                   Max.-Head-Change                        Max.-Flux-Residual
  Residual-Control   Outer-Iter.   Inner-Iter.     Column Row Layer    Max.-Head-Change    Column Row Layer    Max.-Flux-Residual            L2-New               L2-Old           Solver-Max-Delh
          0                 1           6            12    2     1      -0.3195738808E+00       1    1    1      -0.2445861008E+03      0.6715842950E+03      0.5467223673E-01     -0.3195738808E+00
          0                 2           5            12    2     2       0.2340006344E-01       1    1    1       0.1881132607E+02      0.4878375639E+02      0.6715842950E+03      0.2340006344E-01
          0                 3           4            12    2     1       0.1466838807E-02       1    1    1       0.1306759072E+01      0.3565406163E+01      0.4878375639E+02      0.1466838807E-02
          0                 4           3            12    1     1       0.1074325663E-03      12    1    1       0.9115421050E-01      0.2633672967E+00      0.3565406163E+01      0.1074325663E-03
          0                 5           2             1    3     1       0.1034912315E-04       1    3    1       0.1429230638E-01      0.2782256266E-01      0.2633672967E+00      0.1034912315E-04

    ------------------------------------------------
       NWT REQUIRED            5 OUTER ITERATIONS 
       AND A TOTAL OF         20 INNER ITERATIONS.
    ------------------------------------------------
                                                   Max.-Head-Change                        Max.-Flux-Residual
  Residual-Control   Outer-Iter.   Inner-Iter.     Column Row Layer    Max.-Head-Change    Column Row Layer    Max.-Flux-Residual            L2-New               L2-Old           Solver-Max-Delh
          0                 1           6            12    2     1      -0.1155708087E+00       1    1    1      -0.9170089988E+02      0.2189549634E+03      0.2782256266E-01     -0.1155708087E+00
          0                 2           4            12    2     2       0.9513008556E-02       1    1    1       0.7207696337E+01      0.1678272738E+02      0.2189549634E+03      0.9513008556E-02
          0                 3           4            12    2     1       0.5312840877E-03       1    1    1       0.4835714252E+00      0.1159584563E+01      0.1678272738E+02      0.5312840877E-03
          0                 4           2            12    2     1       0.3709229102E-04      12    1    1       0.3196033166E-01      0.7955297072E-01      0.1159584563E+01      0.3709229102E-04

    ------------------------------------------------
       NWT REQUIRED            4 OUTER ITERATIONS 
       AND A TOTAL OF         16 INNER ITERATIONS.
    ------------------------------------------------
                                                   Max.-Head-Change                        Max.-Flux-Residual
  Residual-Control   Outer-Iter.   Inner-Iter.     Column Row Layer    Max.-Head-Change    Column Row Layer    Max.-Flux-Residual            L2-New               L2-Old           Solver-Max-Delh
          0                 1           5            12    2     2      -0.3968155196E-01      12    1    1      -0.2758645648E+02      0.7211934714E+02      0.7955297072E-01     -0.3968155196E-01
          0                 2           4            12    2     2       0.3375457142E-02      12    1    1       0.2272032505E+01      0.5943192118E+01      0.7211934714E+02      0.3375457142E-02
          0                 3           3            12    2     2       0.1722438515E-03       1    1    1       0.1475359849E+00      0.3848817963E+00      0.5943192118E+01      0.1722438515E-03
          0                 4           2            12    1     1       0.1266526259E-04      12    1    1       0.1619423414E-01      0.3173028752E-01      0.3848817963E+00      0.1266526259E-04

    ------------------------------------------------
       NWT REQUIRED            4 OUTER ITERATIONS 
       AND A TOTAL OF         14 INNER ITERATIONS.
    ------------------------------------------------
                                                   Max.-Head-Change                        Max.-Flux-Residual
  Residual-Control   Outer-Iter.   Inner-Iter.     Column Row Layer    Max.-Head-Change    Column Row Layer    Max.-Flux-Residual            L2-New               L2-Old           Solver-Max-Delh
          0                 1           5             7    3     1       0.2789895251E-01       6    3    1       0.1214076731E+02      0.4330596795E+02      0.3173028752E-01      0.2789895251E-01
          0                 2           4             7    3     1      -0.1712831602E-02       4    3    1      -0.9469743111E+00      0.3241439797E+01      0.4330596795E+02     -0.1712831602E-02
          0                 3           3             7    1     1      -0.1237283777E-03       9    1    1      -0.6589877396E-01      0.2258775283E+00      0.3241439797E+01     -0.1237283777E-03
          0                 4           2             5    1     1      -0.1365789163E-04       4    3    1      -0.8644286892E-02      0.2486732782E-01      0.2258775283E+00     -0.1365789163E-04

    ------------------------------------------------
       NWT REQUIRED            4 OUTER ITERATIONS 
       AND A TOTAL OF         14 INNER ITERATIONS.
    ------------------------------------------------
                                                   Max.-Head-Change                        Max.-Flux-Residual
  Residual-Control   Outer-Iter.   Inner-Iter.     Column Row Layer    Max.-Head-Change    Column Row Layer    Max.-Flux-Residual            L2-New               L2-Old           Solver-Max-Delh
          0                 1           5             6    3     1       0.2061722360E-01       6    3    1       0.8452937088E+01      0.3218439872E+02      0.2486732782E-01      0.2061722360E-01
          0                 2           3             7    3     1      -0.1235274443E-02       4    3    1      -0.6406774601E+00      0.2263400005E+01      0.3218439872E+02     -0.1235274443E-02
          0                 3           2             7    3     1      -0.9591519944E-04       9    3    1      -0.5005659908E-01      0.1711544249E+00      0.2263400005E+01     -0.9591519944E-04

    ------------------------------------------------
       NWT REQUIRED            3 OUTER ITERATIONS 
       AND A TOTAL OF         10 INNER ITERATIONS.
    ------------------------------------------------
                                                   Max.-Head-Change                        Max.-Flux-Residual
  Residual-Control   Outer-Iter.   Inner-Iter.     Column Row Layer    Max.-Head-Change    Column Row Layer    Max.-Flux-Residual            L2-New               L2-Old           Solver-Max-Delh
          0                 1           5             6    1     1       0.1256452829E-01       1    1    1       0.5084583261E+01      0.2138608705E+02      0.1711544249E+00      0.1256452829E-01
          0                 2           3             7    1     1      -0.7459277546E-03       1    1    1      -0.3796543297E+00      0.1495757215E+01      0.2138608705E+02     -0.7459277546E-03
          0                 3           2             7    1     1      -0.5794360294E-04      12    1    1      -0.2898794872E-01      0.1151424406E+00      0.1495757215E+01     -0.5794360294E-04

    ------------------------------------------------
       NWT REQUIRED            3 OUTER ITERATIONS 
       AND A TOTAL OF         10 INNER ITERATIONS.
    ------------------------------------------------
                                                   Max.-Head-Change                        Max.-Flux-Residual
  Residual-Control   Outer-Iter.   Inner-Iter.     Column Row Layer    Max.-Head-Change    Column Row Layer    Max.-Flux-Residual            L2-New               L2-Old           Solver-Max-Delh
          0                 1           4             6    1     1       0.6769943388E-02       1    1    1       0.3840228816E+01      0.1289519006E+02      0.1151424406E+00      0.6769943388E-02
          0                 2           3             7    1     1      -0.3960094651E-03       1    1    1      -0.2947915837E+00      0.9123343717E+00      0.1289519006E+02     -0.3960094651E-03
          0                 3           2             5    1     1      -0.2962550573E-04      12    3    1      -0.2283612019E-01      0.6555926324E-01      0.9123343717E+00     -0.2962550573E-04

    ------------------------------------------------
       NWT REQUIRED            3 OUTER ITERATIONS 
       AND A TOTAL OF          9 INNER ITERATIONS.
    ------------------------------------------------
                                                   Max.-Head-Change                        Max.-Flux-Residual
  Residual-Control   Outer-Iter.   Inner-Iter.     Column Row Layer    Max.-Head-Change    Column Row Layer    Max.-Flux-Residual            L2-New               L2-Old           Solver-Max-Delh
          0                 1           4             6    1     1       0.3346814213E-02       1    3    1       0.2442621389E+01      0.7254927359E+01      0.6555926324E-01      0.3346814213E-02
          0                 2           3             1    2     1      -0.2056610024E-03       1    3    1      -0.1882278465E+00      0.5154199830E+00      0.7254927359E+01     -0.2056610024E-03
          0                 3           2            12    3     1      -0.1819784102E-04      12    3    1      -0.1612415363E-01      0.4306660685E-01      0.5154199830E+00     -0.1819784102E-04

    ------------------------------------------------
       NWT REQUIRED            3 OUTER ITERATIONS 
       AND A TOTAL OF          9 INNER ITERATIONS.
    ------------------------------------------------
                                                   Max.-Head-Change                        Max.-Flux-Residual
  Residual-Control   Outer-Iter.   Inner-Iter.     Column Row Layer    Max.-Head-Change    Column Row Layer    Max.-Flux-Residual            L2-New               L2-Old           Solver-Max-Delh
          0                 1           4            12    2     1       0.1845003417E-02       1    1    1       0.1408075971E+01      0.3856859965E+01      0.4306660685E-01      0.1845003417E-02
          0                 2           3            12    1     1      -0.1185201549E-03       1    1    1      -0.1191751932E+00      0.2787970391E+00      0.3856859965E+01     -0.1185201549E-03
          0                 3           2             5    1     1      -0.1429327684E-04      12    2    1      -0.8658946841E-02      0.3076749808E-01      0.2787970391E+00     -0.1429327684E-04

    ------------------------------------------------
       NWT REQUIRED            3 OUTER ITERATIONS 
       AND A TOTAL OF          9 INNER ITERATIONS.
    ------------------------------------------------
                                                   Max.-Head-Change                        Max.-Flux-Residual
  Residual-Control   Outer-Iter.   Inner-Iter.     Column Row Layer    Max.-Head-Change    Column Row Layer    Max.-Flux-Residual            L2-New               L2-Old           Solver-Max-Delh
          0                 1           4            12    2     1       0.9724624249E-03       1    1    1       0.7405589876E+00      0.1946108143E+01      0.3076749808E-01      0.9724624249E-03
          0                 2           3             1    2     1      -0.6663127222E-04      12    3    1      -0.6048074027E-01      0.1471752994E+00      0.1946108143E+01     -0.6663127222E-04

    ------------------------------------------------
       NWT REQUIRED            2 OUTER ITERATIONS 
       AND A TOTAL OF          7 INNER ITERATIONS.
    ------------------------------------------------
                                                   Max.-Head-Change                        Max.-Flux-Residual
  Residual-Control   Outer-Iter.   Inner-Iter.     Column Row Layer    Max.-Head-Change    Column Row Layer    Max.-Flux-Residual            L2-New               L2-Old           Solver-Max-Delh
          0                 1           3            12    2     1       0.4701285209E-03       1    3    1       0.3598456812E+00      0.9143576783E+00      0.1471752994E+00      0.4701285209E-03
          0                 2           2            12    2     2      -0.3320952584E-04      12    1    1      -0.3287478350E-01      0.6687919207E-01      0.9143576783E+00     -0.3320952584E-04

    ------------------------------------------------
       NWT REQUIRED            2 OUTER ITERATIONS 
       AND A TOTAL OF          5 INNER ITERATIONS.
    ------------------------------------------------
                                                   Max.-Head-Change                        Max.-Flux-Residual
  Residual-Control   Outer-Iter.   Inner-Iter.     Column Row Layer    Max.-Head-Change    Column Row Layer    Max.-Flux-Residual            L2-New               L2-Old           Solver-Max-Delh
          0                 1           3            12    2     1       0.2176126706E-03      12    1    1       0.1686821812E+00      0.4211131769E+00      0.6687919207E-01      0.2176126706E-03
          0                 2           2            12    2     1      -0.1874902863E-04      12    3    1      -0.1856184559E-01      0.3728671699E-01      0.4211131769E+00     -0.1874902863E-04

    ------------------------------------------------
       NWT REQUIRED            2 OUTER ITERATIONS 
       AND A TOTAL OF          5 INNER ITERATIONS.
    ------------------------------------------------
                                                   Max.-Head-Change                        Max.-Flux-Residual
  Residual-Control   Outer-Iter.   Inner-Iter.     Column Row Layer    Max.-Head-Change    Column Row Layer    Max.-Flux-Residual            L2-New               L2-Old           Solver-Max-Delh
          0                 1           3            12    3     2       0.1054305421E-03      12    1    1       0.8235349436E-01      0.1907428477E+00      0.3728671699E-01      0.1054305421E-03
          0                 2           2             1    3     1      -0.8844161644E-05       1    3    1      -0.1142898150E-01      0.2145132853E-01      0.1907428477E+00     -0.8844161644E-05

    ------------------------------------------------
       NWT REQUIRED            2 OUTER ITERATIONS 
       AND A TOTAL OF          5 INNER ITERATIONS.
    ------------------------------------------------

 OUTPUT CONTROL FOR STRESS PERIOD      1   TIME STEP     1
    SAVE HEAD FOR ALL LAYERS
    SAVE BUDGET
 UBDSV1 SAVING "         STORAGE" ON UNIT7012 AT TIME STEP    1, STRESS PERIOD   1
 UBDSV2 SAVING "   CONSTANT HEAD" ON UNIT7012 AT TIME STEP    1, STRESS PERIOD   1
 UBDSV1 SAVING "FLOW RIGHT FACE " ON UNIT7012 AT TIME STEP    1, STRESS PERIOD   1
 UBDSV1 SAVING "FLOW FRONT FACE " ON UNIT7012 AT TIME STEP    1, STRESS PERIOD   1
 UBDSV1 SAVING "FLOW LOWER FACE " ON UNIT7012 AT TIME STEP    1, STRESS PERIOD   1
 UBDSV4 SAVING " GHOST-NODE HEAD" ON UNIT7012 AT TIME STEP    1, STRESS PERIOD   1

 HEAD WILL BE SAVED ON UNIT 2212 AT END OF TIME STEP     1, STRESS PERIOD      1
1
  FLUX ACROSS PARENT-CHILD INTERFACE AT TIME STEP  1 IN STRESS PERIOD    1
  ------------------------------------------------------------------------
 G-N FLUX        PARENT        CHILD         DIFFERENCE      % DIFFERENCE
  RATE IN:      8.3729E+04    8.3729E+04    -3.7500E-01       -0.0004
 RATE OUT:      1.7757E+01    1.7757E+01     1.9455E-04        0.0011
 
 SOLVING FOR HEAD 
                                                   Max.-Head-Change                        Max.-Flux-Residual
  Residual-Control   Outer-Iter.   Inner-Iter.     Column Row Layer    Max.-Head-Change    Column Row Layer    Max.-Flux-Residual            L2-New               L2-Old           Solver-Max-Delh
          0                 1           7             7    2     1       0.8349204776E+01       2    2    1       0.2404275883E+04      0.1035666462E+05      0.2145132853E-01      0.8349204776E+01
          0                 2           7             7    2     1      -0.8545456468E+00       5    2    1      -0.4653398849E+03      0.1469022529E+04      0.1035666462E+05     -0.8545456468E+00
          0                 3           5             7    2     1      -0.4669663815E-01       7    2    1      -0.2802142174E+02      0.8556107321E+02      0.1469022529E+04     -0.4669663815E-01
          0                 4           4             7    2     1      -0.2366911399E-02       7    2    1      -0.1411342397E+01      0.4325780947E+01      0.8556107321E+02     -0.2366911399E-02
          0                 5           3             6    2     1      -0.1214622851E-03       7    2    1      -0.7051724661E-01      0.2168239916E+00      0.4325780947E+01     -0.1214622851E-03
          0                 6           2             2    1     1      -0.7196305516E-05       7    1    1      -0.6603337009E-02      0.2091149448E-01      0.2168239916E+00     -0.7196305516E-05

    ------------------------------------------------
       NWT REQUIRED            6 OUTER ITERATIONS 
       AND A TOTAL OF         28 INNER ITERATIONS.
    ------------------------------------------------
                                                   Max.-Head-Change                        Max.-Flux-Residual
  Residual-Control   Outer-Iter.   Inner-Iter.     Column Row Layer    Max.-Head-Change    Column Row Layer    Max.-Flux-Residual            L2-New               L2-Old           Solver-Max-Delh
          0                 1           7             6    1     1       0.1098915706E+01       1    1    1       0.5279934798E+03      0.2042210222E+04      0.2091149448E-01      0.1098915706E+01
          0                 2           6             6    1     1      -0.9375010105E-01       1    1    1      -0.5047446430E+02      0.2017036786E+03      0.2042210222E+04     -0.9375010105E-01
          0                 3           4             6    1     1      -0.4849500604E-02       1    1    1      -0.2693879671E+01      0.1048357536E+02      0.2017036786E+03     -0.4849500604E-02
          0                 4           3             6    1     1      -0.2488453434E-03       1    1    1      -0.1439618736E+00      0.5377702050E+00      0.1048357536E+02     -0.2488453434E-03
          0                 5           2             6    3     1      -0.1556062602E-04       1    3    1      -0.1255183743E-01      0.3433380548E-01      0.5377702050E+00     -0.1556062602E-04

    ------------------------------------------------
       NWT REQUIRED            5 OUTER ITERATIONS 
       AND A TOTAL OF         22 INNER ITERATIONS.
    ------------------------------------------------
                                                   Max.-Head-Change                        Max.-Flux-Residual
  Residual-Control   Outer-Iter.   Inner-Iter.     Column Row Layer    Max.-Head-Change    Column Row Layer    Max.-Flux-Residual            L2-New               L2-Old           Solver-Max-Delh
          0                 1           7             6    1     1       0.1575372490E+01       1    1    1       0.8448701158E+03      0.3105968492E+04      0.3433380548E-01      0.1575372490E+01
          0                 2           6             7    1     1      -0.1333540172E+00       1    1    1      -0.8099479185E+02      0.3057310074E+03      0.3105968492E+04     -0.1333540172E+00
          0                 3           4             6    1     1      -0.6998913501E-02       1    1    1      -0.4316423300E+01      0.1604125056E+02      0.3057310074E+03     -0.6998913501E-02
          0                 4           3             6    1     1      -0.3659359664E-03       1    3    1      -0.2398679999E+00      0.8470649216E+00      0.1604125056E+02     -0.3659359664E-03
          0                 5           2             7    3     1      -0.2139101954E-04       5    3    1      -0.1458541630E-01      0.4614175240E-01      0.8470649216E+00     -0.2139101954E-04

    ------------------------------------------------
       NWT REQUIRED            5 OUTER ITERATIONS 
       AND A TOTAL OF         22 INNER ITERATIONS.
    ------------------------------------------------
                                                   Max.-Head-Change                        Max.-Flux-Residual
  Residual-Control   Outer-Iter.   Inner-Iter.     Column Row Layer    Max.-Head-Change    Column Row Layer    Max.-Flux-Residual            L2-New               L2-Old           Solver-Max-Delh
          0                 1           7             6    1     1       0.1221698863E+01       1    1    1       0.6992503292E+03      0.2493488737E+04      0.4614175240E-01      0.1221698863E+01
          0                 2           6             7    3     1      -0.1027354072E+00       1    1    1      -0.6719489682E+02      0.2434898319E+03      0.2493488737E+04     -0.1027354072E+00
          0                 3           4             6    1     1      -0.5428731279E-02       1    1    1      -0.3578293841E+01      0.1285691086E+02      0.2434898319E+03     -0.5428731279E-02
          0                 4           3             6    1     1      -0.2918824771E-03       1    1    1      -0.2013243705E+00      0.6857880037E+00      0.1285691086E+02     -0.2918824771E-03
          0                 5           2             6    3     1      -0.2022357249E-04       6    3    1      -0.1456566976E-01      0.4023948065E-01      0.6857880037E+00     -0.2022357249E-04

    ------------------------------------------------
       NWT REQUIRED            5 OUTER ITERATIONS 
       AND A TOTAL OF         22 INNER ITERATIONS.
    ------------------------------------------------
                                                   Max.-Head-Change                        Max.-Flux-Residual
  Residual-Control   Outer-Iter.   Inner-Iter.     Column Row Layer    Max.-Head-Change    Column Row Layer    Max.-Flux-Residual            L2-New               L2-Old           Solver-Max-Delh
          0                 1           7             6    3     1       0.7706870681E+00       1    1    1       0.4732977788E+03      0.1626333647E+04      0.4023948065E-01      0.7706870681E+00
          0                 2           6             7    3     1      -0.6446804508E-01       1    1    1      -0.4555597627E+02      0.1578317712E+03      0.1626333647E+04     -0.6446804508E-01
          0                 3           4             6    3     1      -0.3421777618E-02       1    1    1      -0.2433295438E+01      0.8368186236E+01      0.1578317712E+03     -0.3421777618E-02
          0                 4           3             6    1     1      -0.1819686488E-03       1    3    1      -0.1315897334E+00      0.4430456761E+00      0.8368186236E+01     -0.1819686488E-03
          0                 5           2             5    1     1      -0.1062521985E-04      11    1    1      -0.7718290028E-02      0.2716370788E-01      0.4430456761E+00     -0.1062521985E-04

    ------------------------------------------------
       NWT REQUIRED            5 OUTER ITERATIONS 
       AND A TOTAL OF         22 INNER ITERATIONS.
    ------------------------------------------------
                                                   Max.-Head-Change                        Max.-Flux-Residual
  Residual-Control   Outer-Iter.   Inner-Iter.     Column Row Layer    Max.-Head-Change    Column Row Layer    Max.-Flux-Residual            L2-New               L2-Old           Solver-Max-Delh
          0                 1           6             6    3     1       0.4312226878E+00       1    3    1       0.2880206249E+03      0.9461214384E+03      0.2716370788E-01      0.4312226878E+00
          0                 2           5             7    3     1      -0.3593089844E-01       1    3    1      -0.2773988274E+02      0.9148367243E+02      0.9461214384E+03     -0.3593089844E-01
          0                 3           4             7    3     1      -0.1912302761E-02       1    1    1      -0.1478861520E+01      0.4853109339E+01      0.9148367243E+02     -0.1912302761E-02
          0                 4           3             5    3     1      -0.1036312521E-03       1    3    1      -0.8019335376E-01      0.2605952897E+00      0.4853109339E+01     -0.1036312521E-03
          0                 5           2             6    3     1      -0.5120541098E-05      12    3    1      -0.8019973728E-02      0.1746107917E-01      0.2605952897E+00     -0.5120541098E-05

    ------------------------------------------------
       NWT REQUIRED            5 OUTER ITERATIONS 
       AND A TOTAL OF         20 INNER ITERATIONS.
    ------------------------------------------------
                                                   Max.-Head-Change                        Max.-Flux-Residual
  Residual-Control   Outer-Iter.   Inner-Iter.     Column Row Layer    Max.-Head-Change    Column Row Layer    Max.-Flux-Residual            L2-New               L2-Old           Solver-Max-Delh
          0                 1           6             6    3     1       0.2205088202E+00       1    3    1       0.1629996682E+03      0.5087553563E+03      0.1746107917E-01      0.2205088202E+00
          0                 2           5             7    3     1      -0.1833335236E-01       1    3    1      -0.1569836483E+02      0.4909740076E+02      0.5087553563E+03     -0.1833335236E-01
          0                 3           4             6    3     1      -0.9776303149E-03       1    3    1      -0.8450146650E+00      0.2611096654E+01      0.4909740076E+02     -0.9776303149E-03
          0                 4           3             8    3     1      -0.5395743140E-04      12    1    1      -0.4824244778E-01      0.1421948601E+00      0.2611096654E+01     -0.5395743140E-04

    ------------------------------------------------
       NWT REQUIRED            4 OUTER ITERATIONS 
       AND A TOTAL OF         18 INNER ITERATIONS.
    ------------------------------------------------
                                                   Max.-Head-Change                        Max.-Flux-Residual
  Residual-Control   Outer-Iter.   Inner-Iter.     Column Row Layer    Max.-Head-Change    Column Row Layer    Max.-Flux-Residual            L2-New               L2-Old           Solver-Max-Delh
          0                 1           6            12    3     1       0.1110365459E+00       1    3    1       0.8673262632E+02      0.2569631985E+03      0.1421948601E+00      0.1110365459E+00
          0                 2           5            12    3     1      -0.9314976991E-02       1    3    1      -0.8354227667E+01      0.2478260616E+02      0.2569631985E+03     -0.9314976991E-02
          0                 3           4            12    1     1      -0.4892581342E-03       1    3    1      -0.4449445005E+00      0.1315716939E+01      0.2478260616E+02     -0.4892581342E-03
          0                 4           2             1    2     1      -0.2850669243E-04      12    1    1      -0.2380169171E-01      0.7103222129E-01      0.1315716939E+01     -0.2850669243E-04

    ------------------------------------------------
       NWT REQUIRED            4 OUTER ITERATIONS 
       AND A TOTAL OF         17 INNER ITERATIONS.
    ------------------------------------------------
                                                   Max.-Head-Change                        Max.-Flux-Residual
  Residual-Control   Outer-Iter.   Inner-Iter.     Column Row Layer    Max.-Head-Change    Column Row Layer    Max.-Flux-Residual            L2-New               L2-Old           Solver-Max-Delh
          0                 1           5            12    2     1       0.5500596214E-01       1    3    1       0.4354363856E+02      0.1226756243E+03      0.7103222129E-01      0.5500596214E-01
          0                 2           4            12    2     1      -0.4616611076E-02       1    3    1      -0.4191396939E+01      0.1183336409E+02      0.1226756243E+03     -0.4616611076E-02
          0                 3           3             1    2     1      -0.2434406876E-03       1    3    1      -0.2253721631E+00      0.6290346993E+00      0.1183336409E+02     -0.2434406876E-03
          0                 4           2             1    3     1      -0.1596925478E-04       1    3    1      -0.1778983738E-01      0.3891868170E-01      0.6290346993E+00     -0.1596925478E-04

    ------------------------------------------------
       NWT REQUIRED            4 OUTER ITERATIONS 
       AND A TOTAL OF         14 INNER ITERATIONS.
    ------------------------------------------------
                                                   Max.-Head-Change                        Max.-Flux-Residual
  Residual-Control   Outer-Iter.   Inner-Iter.     Column Row Layer    Max.-Head-Change    Column Row Layer    Max.-Flux-Residual            L2-New               L2-Old           Solver-Max-Delh
          0                 1           5            12    2     1       0.2572933539E-01       1    3    1       0.2058589139E+02      0.5531257900E+02      0.3891868170E-01      0.2572933539E-01
          0                 2           4            12    2     1      -0.2161140939E-02       1    3    1      -0.1982071447E+01      0.5338685162E+01      0.5531257900E+02     -0.2161140939E-02
          0                 3           3            12    1     1      -0.1129931349E-03       1    3    1      -0.1079799852E+00      0.2826021838E+00      0.5338685162E+01     -0.1129931349E-03
          0                 4           2            10    3     1      -0.1068117615E-04      12    2    1      -0.7714911364E-02      0.2464489383E-01      0.2826021838E+00     -0.1068117615E-04

    ------------------------------------------------
       NWT REQUIRED            4 OUTER ITERATIONS 
       AND A TOTAL OF         14 INNER ITERATIONS.
    ------------------------------------------------
                                                   Max.-Head-Change                        Max.-Flux-Residual
  Residual-Control   Outer-Iter.   Inner-Iter.     Column Row Layer    Max.-Head-Change    Column Row Layer    Max.-Flux-Residual            L2-New               L2-Old           Solver-Max-Delh
          0                 1           5            12    2     1       0.1119993466E-01       1    3    1       0.9039187464E+01      0.2333080321E+02      0.2464489383E-01      0.1119993466E-01
          0                 2           4            12    2     1      -0.9399009428E-03       1    3    1      -0.8701407610E+00      0.2249579766E+01      0.2333080321E+02     -0.9399009428E-03
          0                 3           3             1    3     1      -0.5281001771E-04       1    3    1      -0.5283703608E-01      0.1232172354E+00      0.2249579766E+01     -0.5281001771E-04

    ------------------------------------------------
       NWT REQUIRED            3 OUTER ITERATIONS 
       AND A TOTAL OF         12 INNER ITERATIONS.
    ------------------------------------------------
                                                   Max.-Head-Change                        Max.-Flux-Residual
  Residual-Control   Outer-Iter.   Inner-Iter.     Column Row Layer    Max.-Head-Change    Column Row Layer    Max.-Flux-Residual            L2-New               L2-Old           Solver-Max-Delh
          0                 1           4            12    2     2       0.4626100491E-02       1    1    1       0.3608629287E+01      0.9009596220E+01      0.1232172354E+00      0.4626100491E-02
          0                 2           3            12    2     2      -0.3975753776E-03      12    1    1      -0.3498641634E+00      0.8715899867E+00      0.9009596220E+01     -0.3975753776E-03
          0                 3           2            12    2     2      -0.1969147314E-04       1    1    1      -0.2019402001E-01      0.4437469257E-01      0.8715899867E+00     -0.1969147314E-04

    ------------------------------------------------
       NWT REQUIRED            3 OUTER ITERATIONS 
       AND A TOTAL OF          9 INNER ITERATIONS.
    ------------------------------------------------
                                                   Max.-Head-Change                        Max.-Flux-Residual
  Residual-Control   Outer-Iter.   Inner-Iter.     Column Row Layer    Max.-Head-Change    Column Row Layer    Max.-Flux-Residual            L2-New               L2-Old           Solver-Max-Delh
          0                 1           4            12    2     2       0.1814852793E-02      12    1    1       0.1236993308E+01      0.3036841740E+01      0.4437469257E-01      0.1814852793E-02
          0                 2           3            12    2     2      -0.1563839557E-03      12    1    1      -0.1241896013E+00      0.2937182148E+00      0.3036841740E+01     -0.1563839557E-03
          0                 3           2            12    2     1      -0.9361114455E-05      12    2    1      -0.7611807960E-02      0.2115369813E-01      0.2937182148E+00     -0.9361114455E-05

    ------------------------------------------------
       NWT REQUIRED            3 OUTER ITERATIONS 
       AND A TOTAL OF          9 INNER ITERATIONS.
    ------------------------------------------------
                                                   Max.-Head-Change                        Max.-Flux-Residual
  Residual-Control   Outer-Iter.   Inner-Iter.     Column Row Layer    Max.-Head-Change    Column Row Layer    Max.-Flux-Residual            L2-New               L2-Old           Solver-Max-Delh
          0                 1           4            12    2     2       0.5987173721E-03      12    3    1       0.3032486470E+00      0.8818166226E+00      0.2115369813E-01      0.5987173721E-03
          0                 2           2            12    3     2      -0.5101875431E-04      12    3    1      -0.2602307408E-01      0.7941531740E-01      0.8818166226E+00     -0.5101875431E-04

    ------------------------------------------------
       NWT REQUIRED            2 OUTER ITERATIONS 
       AND A TOTAL OF          6 INNER ITERATIONS.
    ------------------------------------------------
                                                   Max.-Head-Change                        Max.-Flux-Residual
  Residual-Control   Outer-Iter.   Inner-Iter.     Column Row Layer    Max.-Head-Change    Column Row Layer    Max.-Flux-Residual            L2-New               L2-Old           Solver-Max-Delh
          0                 1           3             6    3     1      -0.2408054944E-03       9    3    1      -0.1190721057E+00      0.4110554147E+00      0.7941531740E-01     -0.2408054944E-03
          0                 2           2             1    2     3      -0.2067959964E-04       4    1    1       0.1750698721E-01      0.4335986029E-01      0.4110554147E+00     -0.2067959964E-04

    ------------------------------------------------
       NWT REQUIRED            2 OUTER ITERATIONS 
       AND A TOTAL OF          5 INNER ITERATIONS.
    ------------------------------------------------
                                                   Max.-Head-Change                        Max.-Flux-Residual
  Residual-Control   Outer-Iter.   Inner-Iter.     Column Row Layer    Max.-Head-Change    Column Row Layer    Max.-Flux-Residual            L2-New               L2-Old           Solver-Max-Delh
          0                 1           3             7    1     1      -0.1738639783E-03       1    3    1      -0.1120420608E+00      0.3501545086E+00      0.4335986029E-01     -0.1738639783E-03
          0                 2           2             4    1     1       0.1643251954E-04       1    3    1       0.1928838040E-01      0.4311554626E-01      0.3501545086E+00      0.1643251954E-04

    ------------------------------------------------
       NWT REQUIRED            2 OUTER ITERATIONS 
       AND A TOTAL OF          5 INNER ITERATIONS.
    ------------------------------------------------
                                                   Max.-Head-Change                        Max.-Flux-Residual
  Residual-Control   Outer-Iter.   Inner-Iter.     Column Row Layer    Max.-Head-Change    Column Row Layer    Max.-Flux-Residual            L2-New               L2-Old           Solver-Max-Delh
          0                 1           3             8    3     1      -0.1121568012E-03       1    1    1      -0.9072294889E-01      0.2576697661E+00      0.4311554626E-01     -0.1121568012E-03
          0                 2           2             5    1     1       0.9809333534E-05      12    2    1       0.8897991211E-02      0.2787555417E-01      0.2576697661E+00      0.9809333534E-05

    ------------------------------------------------
       NWT REQUIRED            2 OUTER ITERATIONS 
       AND A TOTAL OF          5 INNER ITERATIONS.
    ------------------------------------------------

 OUTPUT CONTROL FOR STRESS PERIOD      1   TIME STEP     2
    SAVE BUDGET
 UBDSV1 SAVING "         STORAGE" ON UNIT7012 AT TIME STEP    2, STRESS PERIOD   1
 UBDSV2 SAVING "   CONSTANT HEAD" ON UNIT7012 AT TIME STEP    2, STRESS PERIOD   1
 UBDSV1 SAVING "FLOW RIGHT FACE " ON UNIT7012 AT TIME STEP    2, STRESS PERIOD   1
 UBDSV1 SAVING "FLOW FRONT FACE " ON UNIT7012 AT TIME STEP    2, STRESS PERIOD   1
 UBDSV1 SAVING "FLOW LOWER FACE " ON UNIT7012 AT TIME STEP    2, STRESS PERIOD   1
 UBDSV4 SAVING " GHOST-NODE HEAD" ON UNIT7012 AT TIME STEP    2, STRESS PERIOD   1
1
  VOLUMETRIC BUDGET FOR ENTIRE MODEL AT END OF TIME STEP    2 IN STRESS PERIOD      1
  ------------------------------------------------------------------------------

     CUMULATIVE VOLUMES      L**3       RATES FOR THIS TIME STEP      L**3/T
     ------------------                 ------------------------

           IN:                                      IN:
           ---                                      ---
             STORAGE =        7520.0210               STORAGE =          21.6431
       CONSTANT HEAD =           0.0000         CONSTANT HEAD =           0.0000
     GHOST-NODE HEAD =     1486235.3750       GHOST-NODE HEAD =       13985.0537

            TOTAL IN =     1493755.3750              TOTAL IN =       14006.6973

          OUT:                                     OUT:
          ----                                     ----
             STORAGE =     1493067.2500               STORAGE =       13979.2031
       CONSTANT HEAD =           0.0000         CONSTANT HEAD =           0.0000
     GHOST-NODE HEAD =         687.8961       GHOST-NODE HEAD =          27.4694

           TOTAL OUT =     1493755.1250             TOTAL OUT =       14006.6729

            IN - OUT =           0.2500              IN - OUT =       2.4414E-02

 PERCENT DISCREPANCY =           0.00     PERCENT DISCREPANCY =           0.00






          TIME SUMMARY AT END OF TIME STEP     2 IN STRESS PERIOD      1
                    SECONDS     MINUTES      HOURS       DAYS        YEARS
                    -----------------------------------------------------------
   TIME STEP LENGTH 1.31414E+06  21902.      365.04      15.210     4.16427E-02
 STRESS PERIOD TIME 2.62829E+06  43805.      730.08      30.420     8.32854E-02
         TOTAL TIME 2.62829E+06  43805.      730.08      30.420     8.32854E-02
1
1
  FLUX ACROSS PARENT-CHILD INTERFACE AT TIME STEP  2 IN STRESS PERIOD    1
  ------------------------------------------------------------------------
 G-N FLUX        PARENT        CHILD         DIFFERENCE      % DIFFERENCE
  RATE IN:      1.3984E+04    1.3985E+04    -7.7441E-01       -0.0055
 RATE OUT:      2.7471E+01    2.7469E+01     1.4629E-03        0.0053
1
                            STRESS PERIOD NO.      2, LENGTH =   30.42000    
                            -----------------------------------------------

                              NUMBER OF TIME STEPS =     2

                               MULTIPLIER FOR DELT =     1.000

                            INITIAL TIME STEP SIZE =   15.21000    
 
 SOLVING FOR HEAD 
                                                   Max.-Head-Change                        Max.-Flux-Residual
  Residual-Control   Outer-Iter.   Inner-Iter.     Column Row Layer    Max.-Head-Change    Column Row Layer    Max.-Flux-Residual            L2-New               L2-Old           Solver-Max-Delh
          0                 1           7             7    2     1       0.2379278145E+01       7    1    1       0.7054574072E+03      0.3430826219E+04      0.2787555417E-01      0.2379278145E+01
          0                 2           6             7    2     1      -0.2130918617E+00       7    1    1      -0.6747986949E+02      0.3407161871E+03      0.3430826219E+04     -0.2130918617E+00
          0                 3           4             7    2     1      -0.1078330791E-01       8    1    1      -0.3338545481E+01      0.1714000403E+02      0.3407161871E+03     -0.1078330791E-01
          0                 4           3             7    2     1      -0.5425487062E-03       9    1    1      -0.1691298110E+00      0.8675173731E+00      0.1714000403E+02     -0.5425487062E-03
          0                 5           2             7    2     1      -0.2759526439E-04       1    3    1      -0.1282087236E-01      0.4696395211E-01      0.8675173731E+00     -0.2759526439E-04

    ------------------------------------------------
       NWT REQUIRED            5 OUTER ITERATIONS 
       AND A TOTAL OF         22 INNER ITERATIONS.
    ------------------------------------------------
                                                   Max.-Head-Change                        Max.-Flux-Residual
  Residual-Control   Outer-Iter.   Inner-Iter.     Column Row Layer    Max.-Head-Change    Column Row Layer    Max.-Flux-Residual            L2-New               L2-Old           Solver-Max-Delh
          0                 1           6             7    3     1       0.6145387766E+00      12    3    1       0.3337434564E+03      0.1266172393E+04      0.4696395211E-01      0.6145387766E+00
          0                 2           5             7    3     1      -0.5305463879E-01      12    3    1      -0.3330255129E+02      0.1263550803E+03      0.1266172393E+04     -0.5305463879E-01
          0                 3           4             7    3     1      -0.2671280367E-02       1    3    1      -0.1687402965E+01      0.6390930666E+01      0.1263550803E+03     -0.2671280367E-02
          0                 4           3             6    1     1      -0.1314218018E-03      12    1    1      -0.8770027495E-01      0.3197230471E+00      0.6390930666E+01     -0.1314218018E-03
          0                 5           2             7    1     1      -0.1116915748E-04       7    1    1      -0.7194497040E-02      0.2525170061E-01      0.3197230471E+00     -0.1116915748E-04

    ------------------------------------------------
       NWT REQUIRED            5 OUTER ITERATIONS 
       AND A TOTAL OF         20 INNER ITERATIONS.
    ------------------------------------------------
                                                   Max.-Head-Change                        Max.-Flux-Residual
  Residual-Control   Outer-Iter.   Inner-Iter.     Column Row Layer    Max.-Head-Change    Column Row Layer    Max.-Flux-Residual            L2-New               L2-Old           Solver-Max-Delh
          0                 1           6             7    3     1       0.4412467316E+00       1    3    1       0.2527454121E+03      0.9254224565E+03      0.2525170061E-01      0.4412467316E+00
          0                 2           5             7    3     1      -0.3797181771E-01      12    3    1      -0.2500762981E+02      0.9206447313E+02      0.9254224565E+03     -0.3797181771E-01
          0                 3           4             7    3     1      -0.1915384963E-02       1    1    1      -0.1280622389E+01      0.4668520421E+01      0.9206447313E+02     -0.1915384963E-02
          0                 4           3             6    1     1      -0.1004397470E-03       1    3    1      -0.6841514725E-01      0.2395126939E+00      0.4668520421E+01     -0.1004397470E-03
          0                 5           2             6    3     1      -0.7553150687E-05       7    1    1      -0.7723198039E-02      0.2120817679E-01      0.2395126939E+00     -0.7553150687E-05

    ------------------------------------------------
       NWT REQUIRED            5 OUTER ITERATIONS 
       AND A TOTAL OF         20 INNER ITERATIONS.
    ------------------------------------------------
                                                   Max.-Head-Change                        Max.-Flux-Residual
  Residual-Control   Outer-Iter.   Inner-Iter.     Column Row Layer    Max.-Head-Change    Column Row Layer    Max.-Flux-Residual            L2-New               L2-Old           Solver-Max-Delh
          0                 1           6             7    3     1       0.2670933121E+00       1    1    1       0.1643726764E+03      0.5756686939E+03      0.2120817679E-01      0.2670933121E+00
          0                 2           5             7    3     1      -0.2293070141E-01       1    1    1      -0.1618457191E+02      0.5714208862E+02      0.5756686939E+03     -0.2293070141E-01
          0                 3           4             7    3     1      -0.1157082294E-02       1    3    1      -0.8294993065E+00      0.2899149846E+01      0.5714208862E+02     -0.1157082294E-02
          0                 4           3             8    3     1      -0.6097178331E-04       1    1    1      -0.4358322371E-01      0.1488929603E+00      0.2899149846E+01     -0.6097178331E-04

    ------------------------------------------------
       NWT REQUIRED            4 OUTER ITERATIONS 
       AND A TOTAL OF         18 INNER ITERATIONS.
    ------------------------------------------------
                                                   Max.-Head-Change                        Max.-Flux-Residual
  Residual-Control   Outer-Iter.   Inner-Iter.     Column Row Layer    Max.-Head-Change    Column Row Layer    Max.-Flux-Residual            L2-New               L2-Old           Solver-Max-Delh
          0                 1           6             7    3     1       0.1448861798E+00       1    1    1       0.9762987845E+02      0.3246134138E+03      0.1488929603E+00      0.1448861798E+00
          0                 2           5             7    3     1      -0.1242168378E-01       1    1    1      -0.9605849655E+01      0.3216884398E+02      0.3246134138E+03     -0.1242168378E-01
          0                 3           4             7    3     1      -0.6288089011E-03       1    1    1      -0.4970180438E+00      0.1636703972E+01      0.3216884398E+02     -0.6288089011E-03
          0                 4           2             7    3     1      -0.3308788804E-04      12    1    1      -0.2680815646E-01      0.8350906354E-01      0.1636703972E+01     -0.3308788804E-04

    ------------------------------------------------
       NWT REQUIRED            4 OUTER ITERATIONS 
       AND A TOTAL OF         17 INNER ITERATIONS.
    ------------------------------------------------
                                                   Max.-Head-Change                        Max.-Flux-Residual
  Residual-Control   Outer-Iter.   Inner-Iter.     Column Row Layer    Max.-Head-Change    Column Row Layer    Max.-Flux-Residual            L2-New               L2-Old           Solver-Max-Delh
          0                 1           6             7    3     1       0.7206220541E-01       1    1    1       0.5421072420E+02      0.1703869335E+03      0.8350906354E-01      0.7206220541E-01
          0                 2           4             7    3     1      -0.6172507332E-02       1    1    1      -0.5333350702E+01      0.1686767522E+02      0.1703869335E+03     -0.6172507332E-02
          0                 3           3             6    3     1      -0.3145707764E-03       1    3    1      -0.2808915597E+00      0.8638788765E+00      0.1686767522E+02     -0.3145707764E-03
          0                 4           2             8    3     1      -0.2024671813E-04      12    3    1      -0.1766355941E-01      0.5140382669E-01      0.8638788765E+00     -0.2024671813E-04

    ------------------------------------------------
       NWT REQUIRED            4 OUTER ITERATIONS 
       AND A TOTAL OF         15 INNER ITERATIONS.
    ------------------------------------------------
                                                   Max.-Head-Change                        Max.-Flux-Residual
  Residual-Control   Outer-Iter.   Inner-Iter.     Column Row Layer    Max.-Head-Change    Column Row Layer    Max.-Flux-Residual            L2-New               L2-Old           Solver-Max-Delh
          0                 1           5            12    3     1       0.3589215195E-01       1    3    1       0.2839051616E+02      0.8425811048E+02      0.5140382669E-01      0.3589215195E-01
          0                 2           4            12    3     1      -0.3092850356E-02       1    1    1      -0.2795665258E+01      0.8343136928E+01      0.8425811048E+02     -0.3092850356E-02
          0                 3           3             1    3     1      -0.1566747369E-03       1    3    1      -0.1510619479E+00      0.4219853207E+00      0.8343136928E+01     -0.1566747369E-03
          0                 4           2             1    1     1      -0.1184848508E-04       1    1    1      -0.1233692607E-01      0.3122668066E-01      0.4219853207E+00     -0.1184848508E-04

    ------------------------------------------------
       NWT REQUIRED            4 OUTER ITERATIONS 
       AND A TOTAL OF         14 INNER ITERATIONS.
    ------------------------------------------------
                                                   Max.-Head-Change                        Max.-Flux-Residual
  Residual-Control   Outer-Iter.   Inner-Iter.     Column Row Layer    Max.-Head-Change    Column Row Layer    Max.-Flux-Residual            L2-New               L2-Old           Solver-Max-Delh
          0                 1           5            12    2     1       0.1744535924E-01       1    3    1       0.1404947034E+02      0.3941858315E+02      0.3122668066E-01      0.1744535924E-01
          0                 2           4            12    2     1      -0.1508104553E-02       1    1    1      -0.1390403909E+01      0.3909280605E+01      0.3941858315E+02     -0.1508104553E-02
          0                 3           3            12    1     1      -0.7809654272E-04      12    1    1      -0.7374383969E-01      0.1989355238E+00      0.3909280605E+01     -0.7809654272E-04

    ------------------------------------------------
       NWT REQUIRED            3 OUTER ITERATIONS 
       AND A TOTAL OF         12 INNER ITERATIONS.
    ------------------------------------------------
                                                   Max.-Head-Change                        Max.-Flux-Residual
  Residual-Control   Outer-Iter.   Inner-Iter.     Column Row Layer    Max.-Head-Change    Column Row Layer    Max.-Flux-Residual            L2-New               L2-Old           Solver-Max-Delh
          0                 1           4            12    2     1       0.7969850466E-02       1    3    1       0.6535223219E+01      0.1736625001E+02      0.1989355238E+00      0.7969850466E-02
          0                 2           4            12    2     1      -0.6854959571E-03       1    3    1      -0.6456356487E+00      0.1717839688E+01      0.1736625001E+02     -0.6854959571E-03
          0                 3           3            12    1     1      -0.3637915321E-04      12    1    1      -0.3584831354E-01      0.9103761632E-01      0.1717839688E+01     -0.3637915321E-04

    ------------------------------------------------
       NWT REQUIRED            3 OUTER ITERATIONS 
       AND A TOTAL OF         11 INNER ITERATIONS.
    ------------------------------------------------
                                                   Max.-Head-Change                        Max.-Flux-Residual
  Residual-Control   Outer-Iter.   Inner-Iter.     Column Row Layer    Max.-Head-Change    Column Row Layer    Max.-Flux-Residual            L2-New               L2-Old           Solver-Max-Delh
          0                 1           4            12    2     2       0.3423963293E-02       1    3    1       0.2809858707E+01      0.7134250121E+01      0.9103761632E-01      0.3423963293E-02
          0                 2           3            12    2     2      -0.2948805079E-03       1    3    1      -0.2764947709E+00      0.7026003979E+00      0.7134250121E+01     -0.2948805079E-03
          0                 3           2            12    3     1      -0.1723986978E-04      12    3    1      -0.1851521389E-01      0.3744642531E-01      0.7026003979E+00     -0.1723986978E-04

    ------------------------------------------------
       NWT REQUIRED            3 OUTER ITERATIONS 
       AND A TOTAL OF          9 INNER ITERATIONS.
    ------------------------------------------------
                                                   Max.-Head-Change                        Max.-Flux-Residual
  Residual-Control   Outer-Iter.   Inner-Iter.     Column Row Layer    Max.-Head-Change    Column Row Layer    Max.-Flux-Residual            L2-New               L2-Old           Solver-Max-Delh
          0                 1           4            12    2     2       0.1429461275E-02       1    3    1       0.1074738142E+01      0.2650843765E+01      0.3744642531E-01      0.1429461275E-02
          0                 2           3            12    2     2      -0.1237739994E-03      12    1    1      -0.1093162058E+00      0.2624916337E+00      0.2650843765E+01     -0.1237739994E-03
          0                 3           2             1    3     1      -0.1060539221E-04       1    3    1      -0.1370831893E-01      0.2671454638E-01      0.2624916337E+00     -0.1060539221E-04

    ------------------------------------------------
       NWT REQUIRED            3 OUTER ITERATIONS 
       AND A TOTAL OF          9 INNER ITERATIONS.
    ------------------------------------------------
                                                   Max.-Head-Change                        Max.-Flux-Residual
  Residual-Control   Outer-Iter.   Inner-Iter.     Column Row Layer    Max.-Head-Change    Column Row Layer    Max.-Flux-Residual            L2-New               L2-Old           Solver-Max-Delh
          0                 1           4            12    2     2       0.5329609381E-03       1    1    1       0.3408750680E+00      0.8631990531E+00      0.2671454638E-01      0.5329609381E-03
          0                 2           3            12    2     2      -0.4657900006E-04      12    1    1      -0.4482956306E-01      0.9079826722E-01      0.8631990531E+00     -0.4657900006E-04

    ------------------------------------------------
       NWT REQUIRED            2 OUTER ITERATIONS 
       AND A TOTAL OF          7 INNER ITERATIONS.
    ------------------------------------------------
                                                   Max.-Head-Change                        Max.-Flux-Residual
  Residual-Control   Outer-Iter.   Inner-Iter.     Column Row Layer    Max.-Head-Change    Column Row Layer    Max.-Flux-Residual            L2-New               L2-Old           Solver-Max-Delh
          0                 1           3             1    2     3       0.1989595872E-03       5    1    1      -0.7190428372E-01      0.2791997682E+00      0.9079826722E-01      0.1989595872E-03
          0                 2           2             1    2     3      -0.1675426838E-04       5    3    1       0.1071289112E-01      0.3239342235E-01      0.2791997682E+00     -0.1675426838E-04

    ------------------------------------------------
       NWT REQUIRED            2 OUTER ITERATIONS 
       AND A TOTAL OF          5 INNER ITERATIONS.
    ------------------------------------------------
          0                 1           3             6    3     1      -0.9411721354E-04       5    1    1      -0.4841112485E-01      0.1634922692E+00      0.3239342235E-01     -0.9411721354E-04

    ------------------------------------------------
       NWT REQUIRED            1 OUTER ITERATIONS 
       AND A TOTAL OF          3 INNER ITERATIONS.
    ------------------------------------------------
          0                 1           3             6    3     1      -0.5666622414E-04       1    1    1      -0.4340284131E-01      0.1177922367E+00      0.1634922692E+00     -0.5666622414E-04

    ------------------------------------------------
       NWT REQUIRED            1 OUTER ITERATIONS 
       AND A TOTAL OF          3 INNER ITERATIONS.
    ------------------------------------------------

 OUTPUT CONTROL FOR STRESS PERIOD      2   TIME STEP     1
    SAVE BUDGET
 UBDSV1 SAVING "         STORAGE" ON UNIT7012 AT TIME STEP    1, STRESS PERIOD   2
 UBDSV2 SAVING "   CONSTANT HEAD" ON UNIT7012 AT TIME STEP    1, STRESS PERIOD   2
 UBDSV1 SAVING "FLOW RIGHT FACE " ON UNIT7012 AT TIME STEP    1, STRESS PERIOD   2
 UBDSV1 SAVING "FLOW FRONT FACE " ON UNIT7012 AT TIME STEP    1, STRESS PERIOD   2
 UBDSV1 SAVING "FLOW LOWER FACE " ON UNIT7012 AT TIME STEP    1, STRESS PERIOD   2
 UBDSV4 SAVING " GHOST-NODE HEAD" ON UNIT7012 AT TIME STEP    1, STRESS PERIOD   2
1
  FLUX ACROSS PARENT-CHILD INTERFACE AT TIME STEP  1 IN STRESS PERIOD    2
  ------------------------------------------------------------------------
 G-N FLUX        PARENT        CHILD         DIFFERENCE      % DIFFERENCE
  RATE IN:      4.5354E+03    4.5358E+03    -4.2285E-01       -0.0093
 RATE OUT:      3.6393E+02    3.6376E+02     1.6742E-01        0.0460
 
 SOLVING FOR HEAD 
                                                   Max.-Head-Change                        Max.-Flux-Residual
  Residual-Control   Outer-Iter.   Inner-Iter.     Column Row Layer    Max.-Head-Change    Column Row Layer    Max.-Flux-Residual            L2-New               L2-Old           Solver-Max-Delh
          0                 1           7             7    2     1       0.9898053994E+00      12    1    1       0.4313302173E+03      0.1692471477E+04      0.1177922367E+00      0.9898053994E+00
          0                 2           6             7    2     1      -0.8637819802E-01      12    1    1      -0.4252555053E+02      0.1681364363E+03      0.1692471477E+04     -0.8637819802E-01
          0                 3           4             7    2     1      -0.4335955897E-02      12    1    1      -0.2105939156E+01      0.8425208779E+01      0.1681364363E+03     -0.4335955897E-02
          0                 4           3             7    2     1      -0.2164866232E-03      12    1    1      -0.1062030655E+00      0.4197875530E+00      0.8425208779E+01     -0.2164866232E-03
          0                 5           2             9    2     1      -0.1253628764E-04       1    3    1      -0.8943679335E-02      0.2622926582E-01      0.4197875530E+00     -0.1253628764E-04

    ------------------------------------------------
       NWT REQUIRED            5 OUTER ITERATIONS 
       AND A TOTAL OF         22 INNER ITERATIONS.
    ------------------------------------------------
                                                   Max.-Head-Change                        Max.-Flux-Residual
  Residual-Control   Outer-Iter.   Inner-Iter.     Column Row Layer    Max.-Head-Change    Column Row Layer    Max.-Flux-Residual            L2-New               L2-Old           Solver-Max-Delh
          0                 1           6             7    3     1       0.3257206275E+00      12    1    1       0.2080551250E+03      0.7109308837E+03      0.2622926582E-01      0.3257206275E+00
          0                 2           5             7    3     1      -0.2813883875E-01      12    1    1      -0.2086018234E+02      0.7103213445E+02      0.7109308837E+03     -0.2813883875E-01
          0                 3           4             7    3     1      -0.1409903325E-02      12    1    1      -0.1041508725E+01      0.3575402524E+01      0.7103213445E+02     -0.1409903325E-02
          0                 4           3             9    3     1      -0.6950598626E-04      12    1    1      -0.5722956004E-01      0.1801434563E+00      0.3575402524E+01     -0.6950598626E-04

    ------------------------------------------------
       NWT REQUIRED            4 OUTER ITERATIONS 
       AND A TOTAL OF         18 INNER ITERATIONS.
    ------------------------------------------------
                                                   Max.-Head-Change                        Max.-Flux-Residual
  Residual-Control   Outer-Iter.   Inner-Iter.     Column Row Layer    Max.-Head-Change    Column Row Layer    Max.-Flux-Residual            L2-New               L2-Old           Solver-Max-Delh
          0                 1           6             7    3     1       0.1883673869E+00      12    3    1       0.1232318234E+03      0.4179061840E+03      0.1801434563E+00      0.1883673869E+00
          0                 2           5             7    3     1      -0.1624668348E-01      12    3    1      -0.1236778747E+02      0.4168649452E+02      0.4179061840E+03     -0.1624668348E-01
          0                 3           4             7    3     1      -0.8129164270E-03      12    3    1      -0.6152667739E+00      0.2097477815E+01      0.4168649452E+02     -0.8129164270E-03
          0                 4           3             7    3     1      -0.4290274386E-04       1    3    1      -0.3428004752E-01      0.1047236157E+00      0.2097477815E+01     -0.4290274386E-04

    ------------------------------------------------
       NWT REQUIRED            4 OUTER ITERATIONS 
       AND A TOTAL OF         18 INNER ITERATIONS.
    ------------------------------------------------
                                                   Max.-Head-Change                        Max.-Flux-Residual
  Residual-Control   Outer-Iter.   Inner-Iter.     Column Row Layer    Max.-Head-Change    Column Row Layer    Max.-Flux-Residual            L2-New               L2-Old           Solver-Max-Delh
          0                 1           6             7    3     1       0.9892057652E-01      12    3    1       0.6900932794E+02      0.2269175163E+03      0.1047236157E+00      0.9892057652E-01
          0                 2           5             7    3     1      -0.8522742085E-02      12    3    1      -0.6927735389E+01      0.2261441252E+02      0.2269175163E+03     -0.8522742085E-02
          0                 3           3             7    3     1      -0.4275762847E-03       1    3    1      -0.3478316476E+00      0.1138530602E+01      0.2261441252E+02     -0.4275762847E-03
          0                 4           2            12    3     1      -0.2322667737E-04      12    3    1      -0.2246922895E-01      0.5662515412E-01      0.1138530602E+01     -0.2322667737E-04

    ------------------------------------------------
       NWT REQUIRED            4 OUTER ITERATIONS 
       AND A TOTAL OF         16 INNER ITERATIONS.
    ------------------------------------------------
                                                   Max.-Head-Change                        Max.-Flux-Residual
  Residual-Control   Outer-Iter.   Inner-Iter.     Column Row Layer    Max.-Head-Change    Column Row Layer    Max.-Flux-Residual            L2-New               L2-Old           Solver-Max-Delh
          0                 1           5             7    1     1       0.4807936118E-01      12    3    1       0.3651139249E+02      0.1156208161E+03      0.5662515412E-01      0.4807936118E-01
          0                 2           4             7    1     1      -0.4139198749E-02      12    3    1      -0.3661529412E+01      0.1152093509E+02      0.1156208161E+03     -0.4139198749E-02
          0                 3           3             7    1     1      -0.2076008023E-03       1    1    1      -0.1853164502E+00      0.5733524983E+00      0.1152093509E+02     -0.2076008023E-03
          0                 4           2            12    3     1      -0.1234176669E-04      12    3    1      -0.1166943175E-01      0.3102396584E-01      0.5733524983E+00     -0.1234176669E-04

    ------------------------------------------------
       NWT REQUIRED            4 OUTER ITERATIONS 
       AND A TOTAL OF         14 INNER ITERATIONS.
    ------------------------------------------------
                                                   Max.-Head-Change                        Max.-Flux-Residual
  Residual-Control   Outer-Iter.   Inner-Iter.     Column Row Layer    Max.-Head-Change    Column Row Layer    Max.-Flux-Residual            L2-New               L2-Old           Solver-Max-Delh
          0                 1           5            12    3     1       0.2360067969E-01       1    1    1       0.1874544890E+02      0.5572051515E+02      0.3102396584E-01      0.2360067969E-01
          0                 2           4            12    3     1      -0.2046430180E-02       1    1    1      -0.1856702686E+01      0.5550374524E+01      0.5572051515E+02     -0.2046430180E-02
          0                 3           3             1    2     1      -0.1020149856E-03       1    1    1      -0.9504133719E-01      0.2808291142E+00      0.5550374524E+01     -0.1020149856E-03
          0                 4           2             3    1     1      -0.8079583918E-05       2    3    1      -0.7693754684E-02      0.2316514172E-01      0.2808291142E+00     -0.8079583918E-05

    ------------------------------------------------
       NWT REQUIRED            4 OUTER ITERATIONS 
       AND A TOTAL OF         14 INNER ITERATIONS.
    ------------------------------------------------
                                                   Max.-Head-Change                        Max.-Flux-Residual
  Residual-Control   Outer-Iter.   Inner-Iter.     Column Row Layer    Max.-Head-Change    Column Row Layer    Max.-Flux-Residual            L2-New               L2-Old           Solver-Max-Delh
          0                 1           5            12    2     1       0.1107521742E-01       1    1    1       0.9086864228E+01      0.2538294696E+02      0.2316514172E-01      0.1107521742E-01
          0                 2           4            12    2     1      -0.9553521052E-03       1    1    1      -0.9030379155E+00      0.2526034738E+01      0.2538294696E+02     -0.9553521052E-03
          0                 3           3             1    3     1      -0.5208355577E-04       1    3    1      -0.5464820249E-01      0.1329746869E+00      0.2526034738E+01     -0.5208355577E-04

    ------------------------------------------------
       NWT REQUIRED            3 OUTER ITERATIONS 
       AND A TOTAL OF         12 INNER ITERATIONS.
    ------------------------------------------------
                                                   Max.-Head-Change                        Max.-Flux-Residual
  Residual-Control   Outer-Iter.   Inner-Iter.     Column Row Layer    Max.-Head-Change    Column Row Layer    Max.-Flux-Residual            L2-New               L2-Old           Solver-Max-Delh
          0                 1           4             1    2     1       0.4880087363E-02       1    1    1       0.4117072524E+01      0.1086295091E+02      0.1329746869E+00      0.4880087363E-02
          0                 2           4            12    2     1      -0.4259896676E-03       1    1    1      -0.4058073479E+00      0.1088021331E+01      0.1086295091E+02     -0.4259896676E-03
          0                 3           2             1    3     1      -0.2145664395E-04       1    3    1      -0.2162366977E-01      0.5469404392E-01      0.1088021331E+01     -0.2145664395E-04

    ------------------------------------------------
       NWT REQUIRED            3 OUTER ITERATIONS 
       AND A TOTAL OF         10 INNER ITERATIONS.
    ------------------------------------------------
                                                   Max.-Head-Change                        Max.-Flux-Residual
  Residual-Control   Outer-Iter.   Inner-Iter.     Column Row Layer    Max.-Head-Change    Column Row Layer    Max.-Flux-Residual            L2-New               L2-Old           Solver-Max-Delh
          0                 1           4             1    2     2       0.2137981053E-02       1    3    1       0.1717424536E+01      0.4277179321E+01      0.5469404392E-01      0.2137981053E-02
          0                 2           3             1    2     2      -0.1841592648E-03       1    1    1      -0.1734610915E+00      0.4299789030E+00      0.4277179321E+01     -0.1841592648E-03
          0                 3           2             1    2     2      -0.9095174457E-05      12    1    1      -0.1118040184E-01      0.2373453110E-01      0.4299789030E+00     -0.9095174457E-05

    ------------------------------------------------
       NWT REQUIRED            3 OUTER ITERATIONS 
       AND A TOTAL OF          9 INNER ITERATIONS.
    ------------------------------------------------
                                                   Max.-Head-Change                        Max.-Flux-Residual
  Residual-Control   Outer-Iter.   Inner-Iter.     Column Row Layer    Max.-Head-Change    Column Row Layer    Max.-Flux-Residual            L2-New               L2-Old           Solver-Max-Delh
          0                 1           4             1    2     2       0.8496928751E-03       1    3    1       0.6386275731E+00      0.1491024104E+01      0.2373453110E-01      0.8496928751E-03
          0                 2           3             1    2     2      -0.7356276350E-04       1    1    1      -0.6524707063E-01      0.1506622934E+00      0.1491024104E+01     -0.7356276350E-04

    ------------------------------------------------
       NWT REQUIRED            2 OUTER ITERATIONS 
       AND A TOTAL OF          7 INNER ITERATIONS.
    ------------------------------------------------
                                                   Max.-Head-Change                        Max.-Flux-Residual
  Residual-Control   Outer-Iter.   Inner-Iter.     Column Row Layer    Max.-Head-Change    Column Row Layer    Max.-Flux-Residual            L2-New               L2-Old           Solver-Max-Delh
          0                 1           3             1    3     2       0.3054387409E-03       1    3    1       0.1951213905E+00      0.4599155177E+00      0.1506622934E+00      0.3054387409E-03
          0                 2           2             1    3     2      -0.2587550822E-04      12    3    1      -0.2078560251E-01      0.4995695707E-01      0.4599155177E+00     -0.2587550822E-04

    ------------------------------------------------
       NWT REQUIRED            2 OUTER ITERATIONS 
       AND A TOTAL OF          5 INNER ITERATIONS.
    ------------------------------------------------
                                                   Max.-Head-Change                        Max.-Flux-Residual
  Residual-Control   Outer-Iter.   Inner-Iter.     Column Row Layer    Max.-Head-Change    Column Row Layer    Max.-Flux-Residual            L2-New               L2-Old           Solver-Max-Delh
          0                 1           3             1    3     3       0.1151224033E-03       7    1    1      -0.5401913344E-01      0.1655731572E+00      0.4995695707E-01      0.1151224033E-03
          0                 2           2             7    3     1       0.1009804814E-04       8    3    1       0.8330700628E-02      0.2372884868E-01      0.1655731572E+00      0.1009804814E-04

    ------------------------------------------------
       NWT REQUIRED            2 OUTER ITERATIONS 
       AND A TOTAL OF          5 INNER ITERATIONS.
    ------------------------------------------------
          0                 1           3             6    1     1      -0.7328334180E-04      12    3    1      -0.4301562926E-01      0.1332856020E+00      0.2372884868E-01     -0.7328334180E-04

    ------------------------------------------------
       NWT REQUIRED            1 OUTER ITERATIONS 
       AND A TOTAL OF          3 INNER ITERATIONS.
    ------------------------------------------------
          0                 1           3             6    3     1      -0.4659242261E-04       1    3    1      -0.3850774519E-01      0.1117531508E+00      0.1332856020E+00     -0.4659242261E-04

    ------------------------------------------------
       NWT REQUIRED            1 OUTER ITERATIONS 
       AND A TOTAL OF          3 INNER ITERATIONS.
    ------------------------------------------------

 OUTPUT CONTROL FOR STRESS PERIOD      2   TIME STEP     2
    SAVE BUDGET
 UBDSV1 SAVING "         STORAGE" ON UNIT7012 AT TIME STEP    2, STRESS PERIOD   2
 UBDSV2 SAVING "   CONSTANT HEAD" ON UNIT7012 AT TIME STEP    2, STRESS PERIOD   2
 UBDSV1 SAVING "FLOW RIGHT FACE " ON UNIT7012 AT TIME STEP    2, STRESS PERIOD   2
 UBDSV1 SAVING "FLOW FRONT FACE " ON UNIT7012 AT TIME STEP    2, STRESS PERIOD   2
 UBDSV1 SAVING "FLOW LOWER FACE " ON UNIT7012 AT TIME STEP    2, STRESS PERIOD   2
 UBDSV4 SAVING " GHOST-NODE HEAD" ON UNIT7012 AT TIME STEP    2, STRESS PERIOD   2
1
  VOLUMETRIC BUDGET FOR ENTIRE MODEL AT END OF TIME STEP    2 IN STRESS PERIOD      2
  ------------------------------------------------------------------------------

     CUMULATIVE VOLUMES      L**3       RATES FOR THIS TIME STEP      L**3/T
     ------------------                 ------------------------

           IN:                                      IN:
           ---                                      ---
             STORAGE =        7521.7480               STORAGE =           0.0000
       CONSTANT HEAD =           0.0000         CONSTANT HEAD =           0.0000
     GHOST-NODE HEAD =     1597799.0000       GHOST-NODE HEAD =        2799.1143

            TOTAL IN =     1605320.7500              TOTAL IN =        2799.1143

          OUT:                                     OUT:
          ----                                     ----
             STORAGE =     1585304.1250               STORAGE =        1892.1619
       CONSTANT HEAD =           0.0000         CONSTANT HEAD =           0.0000
     GHOST-NODE HEAD =       20014.2930       GHOST-NODE HEAD =         906.8799

           TOTAL OUT =     1605318.3750             TOTAL OUT =        2799.0417

            IN - OUT =           2.3750              IN - OUT =       7.2510E-02

 PERCENT DISCREPANCY =           0.00     PERCENT DISCREPANCY =           0.00






          TIME SUMMARY AT END OF TIME STEP     2 IN STRESS PERIOD      2
                    SECONDS     MINUTES      HOURS       DAYS        YEARS
                    -----------------------------------------------------------
   TIME STEP LENGTH 1.31414E+06  21902.      365.04      15.210     4.16427E-02
 STRESS PERIOD TIME 2.62829E+06  43805.      730.08      30.420     8.32854E-02
         TOTAL TIME 5.25658E+06  87610.      1460.2      60.840     0.16657    
1
1
  FLUX ACROSS PARENT-CHILD INTERFACE AT TIME STEP  2 IN STRESS PERIOD    2
  ------------------------------------------------------------------------
 G-N FLUX        PARENT        CHILD         DIFFERENCE      % DIFFERENCE
  RATE IN:      2.7988E+03    2.7991E+03    -2.9834E-01       -0.0107
 RATE OUT:      9.0701E+02    9.0688E+02     1.3202E-01        0.0146
1
                            STRESS PERIOD NO.      3, LENGTH =   30.42000    
                            -----------------------------------------------

                              NUMBER OF TIME STEPS =     2

                               MULTIPLIER FOR DELT =     1.000

                            INITIAL TIME STEP SIZE =   15.21000    
 
 SOLVING FOR HEAD 
                                                   Max.-Head-Change                        Max.-Flux-Residual
  Residual-Control   Outer-Iter.   Inner-Iter.     Column Row Layer    Max.-Head-Change    Column Row Layer    Max.-Flux-Residual            L2-New               L2-Old           Solver-Max-Delh
          0                 1           6             7    2     1       0.3193117254E+00      12    3    1       0.1534573262E+03      0.5151855798E+03      0.1117531508E+00      0.3193117254E+00
          0                 2           5             7    2     1      -0.2770533647E-01      12    3    1      -0.1535749153E+02      0.5150383049E+02      0.5151855798E+03     -0.2770533647E-01
          0                 3           4             7    2     1      -0.1385454354E-02      12    3    1      -0.7639989256E+00      0.2575036426E+01      0.5150383049E+02     -0.1385454354E-02
          0                 4           3             7    2     1      -0.6958730446E-04      12    3    1      -0.4555618198E-01      0.1312145320E+00      0.2575036426E+01     -0.6958730446E-04

    ------------------------------------------------
       NWT REQUIRED            4 OUTER ITERATIONS 
       AND A TOTAL OF         18 INNER ITERATIONS.
    ------------------------------------------------
                                                   Max.-Head-Change                        Max.-Flux-Residual
  Residual-Control   Outer-Iter.   Inner-Iter.     Column Row Layer    Max.-Head-Change    Column Row Layer    Max.-Flux-Residual            L2-New               L2-Old           Solver-Max-Delh
          0                 1           6             7    3     1       0.9549718121E-01      12    3    1       0.7272982729E+02      0.1975796833E+03      0.1312145320E+00      0.9549718121E-01
          0                 2           5             7    3     1      -0.8262081886E-02      12    3    1      -0.7308979025E+01      0.1978019839E+02      0.1975796833E+03     -0.8262081886E-02
          0                 3           3             8    3     1      -0.4130338274E-03      12    3    1      -0.3686689302E+00      0.9853545011E+00      0.1978019839E+02     -0.4130338274E-03
          0                 4           2             7    3     1      -0.2150203616E-04      12    1    1      -0.1569456421E-01      0.5258271645E-01      0.9853545011E+00     -0.2150203616E-04

    ------------------------------------------------
       NWT REQUIRED            4 OUTER ITERATIONS 
       AND A TOTAL OF         16 INNER ITERATIONS.
    ------------------------------------------------
                                                   Max.-Head-Change                        Max.-Flux-Residual
  Residual-Control   Outer-Iter.   Inner-Iter.     Column Row Layer    Max.-Head-Change    Column Row Layer    Max.-Flux-Residual            L2-New               L2-Old           Solver-Max-Delh
          0                 1           5             7    3     1       0.6189637435E-01      12    3    1       0.4283665205E+02      0.1347527334E+03      0.5258271645E-01      0.6189637435E-01
          0                 2           4             7    3     1      -0.5345479506E-02      12    3    1      -0.4306700716E+01      0.1347000150E+02      0.1347527334E+03     -0.5345479506E-02
          0                 3           3             7    3     1      -0.2681787875E-03      12    3    1      -0.2128307731E+00      0.6775567794E+00      0.1347000150E+02     -0.2681787875E-03
          0                 4           2             9    3     1      -0.1553160935E-04      12    3    1      -0.1683658146E-01      0.3890620223E-01      0.6775567794E+00     -0.1553160935E-04

    ------------------------------------------------
       NWT REQUIRED            4 OUTER ITERATIONS 
       AND A TOTAL OF         14 INNER ITERATIONS.
    ------------------------------------------------
                                                   Max.-Head-Change                        Max.-Flux-Residual
  Residual-Control   Outer-Iter.   Inner-Iter.     Column Row Layer    Max.-Head-Change    Column Row Layer    Max.-Flux-Residual            L2-New               L2-Old           Solver-Max-Delh
          0                 1           5             8    1     1       0.3793023387E-01      12    1    1       0.2590202839E+02      0.8168167603E+02      0.3890620223E-01      0.3793023387E-01
          0                 2           4             8    1     1      -0.3271177429E-02      12    1    1      -0.2603256783E+01      0.8157842933E+01      0.8168167603E+02     -0.3271177429E-02
          0                 3           3             7    1     1      -0.1664298629E-03      12    1    1      -0.1330008783E+00      0.4109471160E+00      0.8157842933E+01     -0.1664298629E-03
          0                 4           2             7    1     1      -0.1023686860E-04       1    3    1      -0.1072569971E-01      0.2816803019E-01      0.4109471160E+00     -0.1023686860E-04

    ------------------------------------------------
       NWT REQUIRED            4 OUTER ITERATIONS 
       AND A TOTAL OF         14 INNER ITERATIONS.
    ------------------------------------------------
                                                   Max.-Head-Change                        Max.-Flux-Residual
  Residual-Control   Outer-Iter.   Inner-Iter.     Column Row Layer    Max.-Head-Change    Column Row Layer    Max.-Flux-Residual            L2-New               L2-Old           Solver-Max-Delh
          0                 1           5             8    1     1       0.2093098263E-01      12    1    1       0.1491223903E+02      0.4547969229E+02      0.2816803019E-01      0.2093098263E-01
          0                 2           4             8    1     1      -0.1806963025E-02      12    1    1      -0.1497256391E+01      0.4544852468E+01      0.4547969229E+02     -0.1806963025E-02
          0                 3           3             9    1     1      -0.8911000177E-04      12    1    1      -0.7160984195E-01      0.2230230755E+00      0.4544852468E+01     -0.8911000177E-04

    ------------------------------------------------
       NWT REQUIRED            3 OUTER ITERATIONS 
       AND A TOTAL OF         12 INNER ITERATIONS.
    ------------------------------------------------
                                                   Max.-Head-Change                        Max.-Flux-Residual
  Residual-Control   Outer-Iter.   Inner-Iter.     Column Row Layer    Max.-Head-Change    Column Row Layer    Max.-Flux-Residual            L2-New               L2-Old           Solver-Max-Delh
          0                 1           5             8    1     1       0.1042013716E-01      12    1    1       0.7908021626E+01      0.2358658818E+02      0.2230230755E+00      0.1042013716E-01
          0                 2           4             8    1     1      -0.8965995347E-03      12    1    1      -0.7938103619E+00      0.2351473616E+01      0.2358658818E+02     -0.8965995347E-03
          0                 3           3             8    1     1      -0.5032399607E-04      12    1    1      -0.4337234615E-01      0.1275264649E+00      0.2351473616E+01     -0.5032399607E-04

    ------------------------------------------------
       NWT REQUIRED            3 OUTER ITERATIONS 
       AND A TOTAL OF         12 INNER ITERATIONS.
    ------------------------------------------------
                                                   Max.-Head-Change                        Max.-Flux-Residual
  Residual-Control   Outer-Iter.   Inner-Iter.     Column Row Layer    Max.-Head-Change    Column Row Layer    Max.-Flux-Residual            L2-New               L2-Old           Solver-Max-Delh
          0                 1           4            12    1     1       0.4940303378E-02       1    1    1       0.3960293936E+01      0.1152386522E+02      0.1275264649E+00      0.4940303378E-02
          0                 2           3            12    1     1      -0.4266904598E-03       1    1    1      -0.3918190676E+00      0.1144846952E+01      0.1152386522E+02     -0.4266904598E-03
          0                 3           2             1    2     1      -0.2478527992E-04      12    3    1      -0.2185154203E-01      0.6235353384E-01      0.1144846952E+01     -0.2478527992E-04

    ------------------------------------------------
       NWT REQUIRED            3 OUTER ITERATIONS 
       AND A TOTAL OF          9 INNER ITERATIONS.
    ------------------------------------------------
                                                   Max.-Head-Change                        Max.-Flux-Residual
  Residual-Control   Outer-Iter.   Inner-Iter.     Column Row Layer    Max.-Head-Change    Column Row Layer    Max.-Flux-Residual            L2-New               L2-Old           Solver-Max-Delh
          0                 1           4             1    3     1       0.2394730162E-02       1    3    1       0.2027225342E+01      0.5336305204E+01      0.6235353384E-01      0.2394730162E-02
          0                 2           3             1    2     1      -0.2070038228E-03       1    3    1      -0.2009833476E+00      0.5356953864E+00      0.5336305204E+01     -0.2070038228E-03
          0                 3           2             9    1     1      -0.1077369886E-04      12    1    1      -0.1169419673E-01      0.3170415293E-01      0.5356953864E+00     -0.1077369886E-04

    ------------------------------------------------
       NWT REQUIRED            3 OUTER ITERATIONS 
       AND A TOTAL OF          9 INNER ITERATIONS.
    ------------------------------------------------
                                                   Max.-Head-Change                        Max.-Flux-Residual
  Residual-Control   Outer-Iter.   Inner-Iter.     Column Row Layer    Max.-Head-Change    Column Row Layer    Max.-Flux-Residual            L2-New               L2-Old           Solver-Max-Delh
          0                 1           4             1    3     1       0.1109034322E-02       1    3    1       0.9625104556E+00      0.2338007353E+01      0.3170415293E-01      0.1109034322E-02
          0                 2           3             1    3     1      -0.9418628539E-04       1    3    1      -0.9335950174E-01      0.2345109721E+00      0.2338007353E+01     -0.9418628539E-04

    ------------------------------------------------
       NWT REQUIRED            2 OUTER ITERATIONS 
       AND A TOTAL OF          7 INNER ITERATIONS.
    ------------------------------------------------
                                                   Max.-Head-Change                        Max.-Flux-Residual
  Residual-Control   Outer-Iter.   Inner-Iter.     Column Row Layer    Max.-Head-Change    Column Row Layer    Max.-Flux-Residual            L2-New               L2-Old           Solver-Max-Delh
          0                 1           4             1    3     1       0.4687970324E-03       1    3    1       0.4123328163E+00      0.9531588148E+00      0.2345109721E+00      0.4687970324E-03
          0                 2           3             1    3     2      -0.3855107249E-04      12    1    1      -0.3573195264E-01      0.9280311708E-01      0.9531588148E+00     -0.3855107249E-04

    ------------------------------------------------
       NWT REQUIRED            2 OUTER ITERATIONS 
       AND A TOTAL OF          7 INNER ITERATIONS.
    ------------------------------------------------
                                                   Max.-Head-Change                        Max.-Flux-Residual
  Residual-Control   Outer-Iter.   Inner-Iter.     Column Row Layer    Max.-Head-Change    Column Row Layer    Max.-Flux-Residual            L2-New               L2-Old           Solver-Max-Delh
          0                 1           3            12    3     2       0.1874968616E-03       1    3    1       0.1518043759E+00      0.3330556469E+00      0.9280311708E-01      0.1874968616E-03
          0                 2           2            12    3     2      -0.1621698953E-04      12    3    1      -0.2106683122E-01      0.3545681967E-01      0.3330556469E+00     -0.1621698953E-04

    ------------------------------------------------
       NWT REQUIRED            2 OUTER ITERATIONS 
       AND A TOTAL OF          5 INNER ITERATIONS.
    ------------------------------------------------
          0                 1           3             1    2     2       0.6778711461E-04       1    1    1       0.5143548246E-01      0.1125750228E+00      0.3545681967E-01      0.6778711461E-04

    ------------------------------------------------
       NWT REQUIRED            1 OUTER ITERATIONS 
       AND A TOTAL OF          3 INNER ITERATIONS.
    ------------------------------------------------
          0                 1           2             2    1     3       0.2102351725E-04       4    3    1      -0.1819061296E-01      0.4591560060E-01      0.1125750228E+00      0.2102351725E-04

    ------------------------------------------------
       NWT REQUIRED            1 OUTER ITERATIONS 
       AND A TOTAL OF          2 INNER ITERATIONS.
    ------------------------------------------------

 OUTPUT CONTROL FOR STRESS PERIOD      3   TIME STEP     1
    SAVE BUDGET
 UBDSV1 SAVING "         STORAGE" ON UNIT7012 AT TIME STEP    1, STRESS PERIOD   3
 UBDSV2 SAVING "   CONSTANT HEAD" ON UNIT7012 AT TIME STEP    1, STRESS PERIOD   3
 UBDSV1 SAVING "FLOW RIGHT FACE " ON UNIT7012 AT TIME STEP    1, STRESS PERIOD   3
 UBDSV1 SAVING "FLOW FRONT FACE " ON UNIT7012 AT TIME STEP    1, STRESS PERIOD   3
 UBDSV1 SAVING "FLOW LOWER FACE " ON UNIT7012 AT TIME STEP    1, STRESS PERIOD   3
 UBDSV4 SAVING " GHOST-NODE HEAD" ON UNIT7012 AT TIME STEP    1, STRESS PERIOD   3
1
  FLUX ACROSS PARENT-CHILD INTERFACE AT TIME STEP  1 IN STRESS PERIOD    3
  ------------------------------------------------------------------------
 G-N FLUX        PARENT        CHILD         DIFFERENCE      % DIFFERENCE
  RATE IN:      1.8869E+03    1.8871E+03    -2.3145E-01       -0.0123
 RATE OUT:      1.2842E+03    1.2840E+03     1.6846E-01        0.0131
 
 SOLVING FOR HEAD 
                                                   Max.-Head-Change                        Max.-Flux-Residual
  Residual-Control   Outer-Iter.   Inner-Iter.     Column Row Layer    Max.-Head-Change    Column Row Layer    Max.-Flux-Residual            L2-New               L2-Old           Solver-Max-Delh
          0                 1           6             8    2     1       0.1548664855E+00      12    3    1       0.8139833830E+02      0.2722947302E+03      0.4591560060E-01      0.1548664855E+00
          0                 2           5             8    2     1      -0.1339957421E-01      12    3    1      -0.8177878896E+01      0.2723695547E+02      0.2722947302E+03     -0.1339957421E-01
          0                 3           3             8    2     1      -0.6702188234E-03      12    3    1      -0.3981239040E+00      0.1355680581E+01      0.2723695547E+02     -0.6702188234E-03
          0                 4           2             7    2     1      -0.3274473047E-04      11    3    1      -0.1883837755E-01      0.6968336200E-01      0.1355680581E+01     -0.3274473047E-04

    ------------------------------------------------
       NWT REQUIRED            4 OUTER ITERATIONS 
       AND A TOTAL OF         16 INNER ITERATIONS.
    ------------------------------------------------
                                                   Max.-Head-Change                        Max.-Flux-Residual
  Residual-Control   Outer-Iter.   Inner-Iter.     Column Row Layer    Max.-Head-Change    Column Row Layer    Max.-Flux-Residual            L2-New               L2-Old           Solver-Max-Delh
          0                 1           5             8    3     1       0.5370632913E-01      12    3    1       0.3815760110E+02      0.1113863232E+03      0.6968336200E-01      0.5370632913E-01
          0                 2           4             8    3     1      -0.4639716002E-02      12    3    1      -0.3832239871E+01      0.1114904645E+02      0.1113863232E+03     -0.4639716002E-02
          0                 3           3             8    3     1      -0.2334204196E-03      12    3    1      -0.1907263550E+00      0.5597646369E+00      0.1114904645E+02     -0.2334204196E-03
          0                 4           2            12    3     1      -0.1226258667E-04      12    3    1      -0.1277084218E-01      0.3111822836E-01      0.5597646369E+00     -0.1226258667E-04

    ------------------------------------------------
       NWT REQUIRED            4 OUTER ITERATIONS 
       AND A TOTAL OF         14 INNER ITERATIONS.
    ------------------------------------------------
                                                   Max.-Head-Change                        Max.-Flux-Residual
  Residual-Control   Outer-Iter.   Inner-Iter.     Column Row Layer    Max.-Head-Change    Column Row Layer    Max.-Flux-Residual            L2-New               L2-Old           Solver-Max-Delh
          0                 1           5             8    3     1       0.2912845106E-01      12    3    1       0.2083655171E+02      0.6355303694E+02      0.3111822836E-01      0.2912845106E-01
          0                 2           4             8    3     1      -0.2513587659E-02      12    3    1      -0.2090146849E+01      0.6354404168E+01      0.6355303694E+02     -0.2513587659E-02
          0                 3           3             8    3     1      -0.1227866059E-03      12    3    1      -0.9981102924E-01      0.3141732874E+00      0.6354404168E+01     -0.1227866059E-03
          0                 4           2            12    3     1      -0.1066729904E-04      12    3    1      -0.1316817154E-01      0.2814410923E-01      0.3141732874E+00     -0.1066729904E-04

    ------------------------------------------------
       NWT REQUIRED            4 OUTER ITERATIONS 
       AND A TOTAL OF         14 INNER ITERATIONS.
    ------------------------------------------------
                                                   Max.-Head-Change                        Max.-Flux-Residual
  Residual-Control   Outer-Iter.   Inner-Iter.     Column Row Layer    Max.-Head-Change    Column Row Layer    Max.-Flux-Residual            L2-New               L2-Old           Solver-Max-Delh
          0                 1           5             8    1     1       0.1495068691E-01      12    1    1       0.1091501034E+02      0.3371921967E+02      0.2814410923E-01      0.1495068691E-01
          0                 2           4             8    1     1      -0.1292081771E-02      12    1    1      -0.1098758302E+01      0.3368179674E+01      0.3371921967E+02     -0.1292081771E-02
          0                 3           3             9    1     1      -0.6732418537E-04      12    3    1      -0.4851410689E-01      0.1680739250E+00      0.3368179674E+01     -0.6732418537E-04

    ------------------------------------------------
       NWT REQUIRED            3 OUTER ITERATIONS 
       AND A TOTAL OF         12 INNER ITERATIONS.
    ------------------------------------------------
                                                   Max.-Head-Change                        Max.-Flux-Residual
  Residual-Control   Outer-Iter.   Inner-Iter.     Column Row Layer    Max.-Head-Change    Column Row Layer    Max.-Flux-Residual            L2-New               L2-Old           Solver-Max-Delh
          0                 1           4            12    1     1       0.7409832372E-02      12    1    1       0.5843514567E+01      0.1685839647E+02      0.1680739250E+00      0.7409832372E-02
          0                 2           4            12    1     1      -0.6471898165E-03      12    1    1      -0.5936686113E+00      0.1688553742E+01      0.1685839647E+02     -0.6471898165E-03
          0                 3           3            12    1     1      -0.3365018410E-04      12    1    1      -0.3317110974E-01      0.8817096779E-01      0.1688553742E+01     -0.3365018410E-04

    ------------------------------------------------
       NWT REQUIRED            3 OUTER ITERATIONS 
       AND A TOTAL OF         11 INNER ITERATIONS.
    ------------------------------------------------
                                                   Max.-Head-Change                        Max.-Flux-Residual
  Residual-Control   Outer-Iter.   Inner-Iter.     Column Row Layer    Max.-Head-Change    Column Row Layer    Max.-Flux-Residual            L2-New               L2-Old           Solver-Max-Delh
          0                 1           4            12    1     1       0.3608539024E-02      12    1    1       0.2924393538E+01      0.7983740719E+01      0.8817096779E-01      0.3608539024E-02
          0                 2           3            12    1     1      -0.3095787891E-03      12    1    1      -0.2877853189E+00      0.7936445938E+00      0.7983740719E+01     -0.3095787891E-03
          0                 3           2             1    3     1      -0.1937562585E-04       1    3    1      -0.2593177080E-01      0.4649913362E-01      0.7936445938E+00     -0.1937562585E-04

    ------------------------------------------------
       NWT REQUIRED            3 OUTER ITERATIONS 
       AND A TOTAL OF          9 INNER ITERATIONS.
    ------------------------------------------------
                                                   Max.-Head-Change                        Max.-Flux-Residual
  Residual-Control   Outer-Iter.   Inner-Iter.     Column Row Layer    Max.-Head-Change    Column Row Layer    Max.-Flux-Residual            L2-New               L2-Old           Solver-Max-Delh
          0                 1           4            12    1     1       0.1625853461E-02       1    3    1       0.1362690954E+01      0.3563614097E+01      0.4649913362E-01      0.1625853461E-02
          0                 2           3            12    1     1      -0.1419210816E-03       1    3    1      -0.1470235115E+00      0.3608492292E+00      0.3563614097E+01     -0.1419210816E-03
          0                 3           2            12    3     1      -0.1018835394E-04      12    3    1      -0.1277556477E-01      0.2663599133E-01      0.3608492292E+00     -0.1018835394E-04

    ------------------------------------------------
       NWT REQUIRED            3 OUTER ITERATIONS 
       AND A TOTAL OF          9 INNER ITERATIONS.
    ------------------------------------------------
                                                   Max.-Head-Change                        Max.-Flux-Residual
  Residual-Control   Outer-Iter.   Inner-Iter.     Column Row Layer    Max.-Head-Change    Column Row Layer    Max.-Flux-Residual            L2-New               L2-Old           Solver-Max-Delh
          0                 1           4             1    2     2       0.7154125396E-03       1    3    1       0.6196046004E+00      0.1479087471E+01      0.2663599133E-01      0.7154125396E-03
          0                 2           3             1    3     1      -0.6495022601E-04       1    3    1      -0.6919286767E-01      0.1524502394E+00      0.1479087471E+01     -0.6495022601E-04

    ------------------------------------------------
       NWT REQUIRED            2 OUTER ITERATIONS 
       AND A TOTAL OF          7 INNER ITERATIONS.
    ------------------------------------------------
                                                   Max.-Head-Change                        Max.-Flux-Residual
  Residual-Control   Outer-Iter.   Inner-Iter.     Column Row Layer    Max.-Head-Change    Column Row Layer    Max.-Flux-Residual            L2-New               L2-Old           Solver-Max-Delh
          0                 1           3             1    3     2       0.3012595785E-03       1    3    1       0.2777374368E+00      0.5754068169E+00      0.1524502394E+00      0.3012595785E-03
          0                 2           2             1    3     1      -0.2820788331E-04       1    3    1      -0.3515570308E-01      0.6088675413E-01      0.5754068169E+00     -0.2820788331E-04

    ------------------------------------------------
       NWT REQUIRED            2 OUTER ITERATIONS 
       AND A TOTAL OF          5 INNER ITERATIONS.
    ------------------------------------------------
                                                   Max.-Head-Change                        Max.-Flux-Residual
  Residual-Control   Outer-Iter.   Inner-Iter.     Column Row Layer    Max.-Head-Change    Column Row Layer    Max.-Flux-Residual            L2-New               L2-Old           Solver-Max-Delh
          0                 1           3             1    3     2       0.1287341711E-03       1    3    1       0.1140317796E+00      0.2035182201E+00      0.6088675413E-01      0.1287341711E-03
          0                 2           2             1    3     1      -0.1283948533E-04       1    3    1      -0.1371459803E-01      0.2791571188E-01      0.2035182201E+00     -0.1283948533E-04

    ------------------------------------------------
       NWT REQUIRED            2 OUTER ITERATIONS 
       AND A TOTAL OF          5 INNER ITERATIONS.
    ------------------------------------------------
          0                 1           2            12    3     2       0.4142134784E-04       8    1    1      -0.2574101358E-01      0.6938328439E-01      0.2791571188E-01      0.4142134784E-04

    ------------------------------------------------
       NWT REQUIRED            1 OUTER ITERATIONS 
       AND A TOTAL OF          2 INNER ITERATIONS.
    ------------------------------------------------
          0                 1           2             9    1     1      -0.2259859749E-04       1    1    1      -0.1912492432E-01      0.5131008761E-01      0.6938328439E-01     -0.2259859749E-04

    ------------------------------------------------
       NWT REQUIRED            1 OUTER ITERATIONS 
       AND A TOTAL OF          2 INNER ITERATIONS.
    ------------------------------------------------

 OUTPUT CONTROL FOR STRESS PERIOD      3   TIME STEP     2
    PRINT BUDGET
    SAVE HEAD FOR ALL LAYERS
    SAVE BUDGET
 UBDSV1 SAVING "         STORAGE" ON UNIT7012 AT TIME STEP    2, STRESS PERIOD   3
 UBDSV2 SAVING "   CONSTANT HEAD" ON UNIT7012 AT TIME STEP    2, STRESS PERIOD   3
 UBDSV1 SAVING "FLOW RIGHT FACE " ON UNIT7012 AT TIME STEP    2, STRESS PERIOD   3
 UBDSV1 SAVING "FLOW FRONT FACE " ON UNIT7012 AT TIME STEP    2, STRESS PERIOD   3
 UBDSV1 SAVING "FLOW LOWER FACE " ON UNIT7012 AT TIME STEP    2, STRESS PERIOD   3
 UBDSV4 SAVING " GHOST-NODE HEAD" ON UNIT7012 AT TIME STEP    2, STRESS PERIOD   3

 HEAD WILL BE SAVED ON UNIT 2212 AT END OF TIME STEP     2, STRESS PERIOD      3
1
  VOLUMETRIC BUDGET FOR ENTIRE MODEL AT END OF TIME STEP    2 IN STRESS PERIOD      3
  ------------------------------------------------------------------------------

     CUMULATIVE VOLUMES      L**3       RATES FOR THIS TIME STEP      L**3/T
     ------------------                 ------------------------

           IN:                                      IN:
           ---                                      ---
             STORAGE =        7521.7480               STORAGE =           0.0000
       CONSTANT HEAD =           0.0000         CONSTANT HEAD =           0.0000
     GHOST-NODE HEAD =     1652128.5000       GHOST-NODE HEAD =        1684.8090

            TOTAL IN =     1659650.2500              TOTAL IN =        1684.8090

          OUT:                                     OUT:
          ----                                     ----
             STORAGE =     1599011.8750               STORAGE =         298.1050
       CONSTANT HEAD =           0.0000         CONSTANT HEAD =           0.0000
     GHOST-NODE HEAD =       60635.2578       GHOST-NODE HEAD =        1386.6742

           TOTAL OUT =     1659647.1250             TOTAL OUT =        1684.7792

            IN - OUT =           3.1250              IN - OUT =       2.9785E-02

 PERCENT DISCREPANCY =           0.00     PERCENT DISCREPANCY =           0.00






          TIME SUMMARY AT END OF TIME STEP     2 IN STRESS PERIOD      3
                    SECONDS     MINUTES      HOURS       DAYS        YEARS
                    -----------------------------------------------------------
   TIME STEP LENGTH 1.31414E+06  21902.      365.04      15.210     4.16427E-02
 STRESS PERIOD TIME 2.62829E+06  43805.      730.08      30.420     8.32854E-02
         TOTAL TIME 7.88486E+06 1.31414E+05  2190.2      91.260     0.24986    
1
1
  FLUX ACROSS PARENT-CHILD INTERFACE AT TIME STEP  2 IN STRESS PERIOD    3
  ------------------------------------------------------------------------
 G-N FLUX        PARENT        CHILD         DIFFERENCE      % DIFFERENCE
  RATE IN:      1.6847E+03    1.6848E+03    -1.2610E-01       -0.0075
 RATE OUT:      1.3868E+03    1.3867E+03     1.4417E-01        0.0104
1
                            STRESS PERIOD NO.      4, LENGTH =   30.42000    
                            -----------------------------------------------

                              NUMBER OF TIME STEPS =     2

                               MULTIPLIER FOR DELT =     1.000

                            INITIAL TIME STEP SIZE =   15.21000    
 
 SOLVING FOR HEAD 
                                                   Max.-Head-Change                        Max.-Flux-Residual
  Residual-Control   Outer-Iter.   Inner-Iter.     Column Row Layer    Max.-Head-Change    Column Row Layer    Max.-Flux-Residual            L2-New               L2-Old           Solver-Max-Delh
          0                 1           6             6    3     1       0.1516692208E+00       6    3    1       0.6560334291E+02      0.2748737839E+03      0.5131008761E-01      0.1516692208E+00
          0                 2           5             6    3     1      -0.1308990331E-01       6    3    1      -0.6524716049E+01      0.2749138833E+02      0.2748737839E+03     -0.1308990331E-01
          0                 3           3             6    3     1      -0.6581382544E-03       6    3    1      -0.3339049098E+00      0.1377364888E+01      0.2749138833E+02     -0.6581382544E-03
          0                 4           2             5    1     1      -0.3314954094E-04       3    1    1      -0.1805105270E-01      0.7109137392E-01      0.1377364888E+01     -0.3314954094E-04

    ------------------------------------------------
       NWT REQUIRED            4 OUTER ITERATIONS 
       AND A TOTAL OF         16 INNER ITERATIONS.
    ------------------------------------------------
                                                   Max.-Head-Change                        Max.-Flux-Residual
  Residual-Control   Outer-Iter.   Inner-Iter.     Column Row Layer    Max.-Head-Change    Column Row Layer    Max.-Flux-Residual            L2-New               L2-Old           Solver-Max-Delh
          0                 1           5             5    3     1       0.5682800594E-01       5    3    1       0.2781792521E+02      0.1034985469E+03      0.7109137392E-01      0.5682800594E-01
          0                 2           4             5    3     1      -0.4906708494E-02       4    3    1      -0.2795498075E+01      0.1034364566E+02      0.1034985469E+03     -0.4906708494E-02
          0                 3           3             6    3     1      -0.2458121807E-03       6    3    1      -0.1402536101E+00      0.5214564415E+00      0.1034364566E+02     -0.2458121807E-03
          0                 4           2             6    1     1      -0.1387856466E-04      12    3    1      -0.1291490998E-01      0.3149551164E-01      0.5214564415E+00     -0.1387856466E-04

    ------------------------------------------------
       NWT REQUIRED            4 OUTER ITERATIONS 
       AND A TOTAL OF         14 INNER ITERATIONS.
    ------------------------------------------------
                                                   Max.-Head-Change                        Max.-Flux-Residual
  Residual-Control   Outer-Iter.   Inner-Iter.     Column Row Layer    Max.-Head-Change    Column Row Layer    Max.-Flux-Residual            L2-New               L2-Old           Solver-Max-Delh
          0                 1           5             5    3     1       0.2522173217E-01       1    3    1       0.1392225540E+02      0.4799252528E+02      0.3149551164E-01      0.2522173217E-01
          0                 2           4             5    3     1      -0.2172556630E-02       1    3    1      -0.1384314965E+01      0.4788904159E+01      0.4799252528E+02     -0.2172556630E-02
          0                 3           3             5    3     1      -0.1098878618E-03       1    1    1      -0.7187023142E-01      0.2449139790E+00      0.4788904159E+01     -0.1098878618E-03
          0                 4           2             6    3     1      -0.6272639180E-05       6    3    1      -0.6412273855E-02      0.1902523305E-01      0.2449139790E+00     -0.6272639180E-05

    ------------------------------------------------
       NWT REQUIRED            4 OUTER ITERATIONS 
       AND A TOTAL OF         14 INNER ITERATIONS.
    ------------------------------------------------
                                                   Max.-Head-Change                        Max.-Flux-Residual
  Residual-Control   Outer-Iter.   Inner-Iter.     Column Row Layer    Max.-Head-Change    Column Row Layer    Max.-Flux-Residual            L2-New               L2-Old           Solver-Max-Delh
          0                 1           5             5    3     1       0.9826946517E-02       1    1    1       0.7912391123E+01      0.2150382036E+02      0.1902523305E-01      0.9826946517E-02
          0                 2           4             5    3     1      -0.8474039137E-03       1    1    1      -0.7865555322E+00      0.2146102321E+01      0.2150382036E+02     -0.8474039137E-03
          0                 3           3             6    3     1      -0.4299005056E-04       1    1    1      -0.4014062975E-01      0.1077318347E+00      0.2146102321E+01     -0.4299005056E-04

    ------------------------------------------------
       NWT REQUIRED            3 OUTER ITERATIONS 
       AND A TOTAL OF         12 INNER ITERATIONS.
    ------------------------------------------------
                                                   Max.-Head-Change                        Max.-Flux-Residual
  Residual-Control   Outer-Iter.   Inner-Iter.     Column Row Layer    Max.-Head-Change    Column Row Layer    Max.-Flux-Residual            L2-New               L2-Old           Solver-Max-Delh
          0                 1           4             1    2     1       0.4991518659E-02       1    1    1       0.4262423087E+01      0.9911512048E+01      0.1077318347E+00      0.4991518659E-02
          0                 2           4             1    2     1      -0.4317517333E-03       1    1    1      -0.4264881057E+00      0.9954802030E+00      0.9911512048E+01     -0.4317517333E-03
          0                 3           2             1    2     1      -0.2057603339E-04       1    3    1      -0.2217880124E-01      0.5182362129E-01      0.9954802030E+00     -0.2057603339E-04

    ------------------------------------------------
       NWT REQUIRED            3 OUTER ITERATIONS 
       AND A TOTAL OF         10 INNER ITERATIONS.
    ------------------------------------------------
                                                   Max.-Head-Change                        Max.-Flux-Residual
  Residual-Control   Outer-Iter.   Inner-Iter.     Column Row Layer    Max.-Head-Change    Column Row Layer    Max.-Flux-Residual            L2-New               L2-Old           Solver-Max-Delh
          0                 1           4             1    2     1       0.2369152953E-02       1    1    1       0.2111800143E+01      0.4819867551E+01      0.5182362129E-01      0.2369152953E-02
          0                 2           3             1    2     1      -0.2026719846E-03       1    1    1      -0.2059764547E+00      0.4785371637E+00      0.4819867551E+01     -0.2026719846E-03
          0                 3           2            12    1     1      -0.1216332786E-04      12    1    1      -0.1328313240E-01      0.3168346260E-01      0.4785371637E+00     -0.1216332786E-04

    ------------------------------------------------
       NWT REQUIRED            3 OUTER ITERATIONS 
       AND A TOTAL OF          9 INNER ITERATIONS.
    ------------------------------------------------
                                                   Max.-Head-Change                        Max.-Flux-Residual
  Residual-Control   Outer-Iter.   Inner-Iter.     Column Row Layer    Max.-Head-Change    Column Row Layer    Max.-Flux-Residual            L2-New               L2-Old           Solver-Max-Delh
          0                 1           4            12    2     1       0.1100515719E-02      12    1    1       0.1065441393E+01      0.2330901305E+01      0.3168346260E-01      0.1100515719E-02
          0                 2           3            12    2     1      -0.1018814499E-03      12    1    1      -0.1152235443E+00      0.2473535414E+00      0.2330901305E+01     -0.1018814499E-03
          0                 3           1             8    1     1      -0.3994823730E-05       8    1    1      -0.7465619361E-02      0.1240106342E-01      0.2473535414E+00     -0.3994823730E-05

    ------------------------------------------------
       NWT REQUIRED            3 OUTER ITERATIONS 
       AND A TOTAL OF          8 INNER ITERATIONS.
    ------------------------------------------------
                                                   Max.-Head-Change                        Max.-Flux-Residual
  Residual-Control   Outer-Iter.   Inner-Iter.     Column Row Layer    Max.-Head-Change    Column Row Layer    Max.-Flux-Residual            L2-New               L2-Old           Solver-Max-Delh
          0                 1           3            12    2     1       0.5128758341E-03      12    1    1       0.5231766541E+00      0.1061882072E+01      0.1240106342E-01      0.5128758341E-03
          0                 2           2            12    1     1      -0.4494960487E-04      12    1    1      -0.5617536028E-01      0.1075554160E+00      0.1061882072E+01     -0.4494960487E-04

    ------------------------------------------------
       NWT REQUIRED            2 OUTER ITERATIONS 
       AND A TOTAL OF          5 INNER ITERATIONS.
    ------------------------------------------------
                                                   Max.-Head-Change                        Max.-Flux-Residual
  Residual-Control   Outer-Iter.   Inner-Iter.     Column Row Layer    Max.-Head-Change    Column Row Layer    Max.-Flux-Residual            L2-New               L2-Old           Solver-Max-Delh
          0                 1           3            12    1     1       0.2091218226E-03      12    1    1       0.2192704239E+00      0.4448593038E+00      0.1075554160E+00      0.2091218226E-03
          0                 2           2            12    2     1      -0.1905333771E-04      12    1    1      -0.2141691837E-01      0.4577283017E-01      0.4448593038E+00     -0.1905333771E-04

    ------------------------------------------------
       NWT REQUIRED            2 OUTER ITERATIONS 
       AND A TOTAL OF          5 INNER ITERATIONS.
    ------------------------------------------------
          0                 1           3            12    3     2       0.8647633111E-04      12    1    1       0.6757085462E-01      0.1711799479E+00      0.4577283017E-01      0.8647633111E-04

    ------------------------------------------------
       NWT REQUIRED            1 OUTER ITERATIONS 
       AND A TOTAL OF          3 INNER ITERATIONS.
    ------------------------------------------------
          0                 1           2             5    1     1      -0.3504263559E-04       1    3    1      -0.2348577965E-01      0.7250554312E-01      0.1711799479E+00     -0.3504263559E-04

    ------------------------------------------------
       NWT REQUIRED            1 OUTER ITERATIONS 
       AND A TOTAL OF          2 INNER ITERATIONS.
    ------------------------------------------------
          0                 1           2            12    3     1      -0.2498462308E-04      12    3    1      -0.2939736919E-01      0.6390072833E-01      0.7250554312E-01     -0.2498462308E-04

    ------------------------------------------------
       NWT REQUIRED            1 OUTER ITERATIONS 
       AND A TOTAL OF          2 INNER ITERATIONS.
    ------------------------------------------------
          0                 1           2             1    1     2      -0.1469555460E-04       6    1    1      -0.1685918996E-01      0.3967260539E-01      0.6390072833E-01     -0.1469555460E-04

    ------------------------------------------------
       NWT REQUIRED            1 OUTER ITERATIONS 
       AND A TOTAL OF          2 INNER ITERATIONS.
    ------------------------------------------------

 OUTPUT CONTROL FOR STRESS PERIOD      4   TIME STEP     1
    SAVE BUDGET
 UBDSV1 SAVING "         STORAGE" ON UNIT7012 AT TIME STEP    1, STRESS PERIOD   4
 UBDSV2 SAVING "   CONSTANT HEAD" ON UNIT7012 AT TIME STEP    1, STRESS PERIOD   4
 UBDSV1 SAVING "FLOW RIGHT FACE " ON UNIT7012 AT TIME STEP    1, STRESS PERIOD   4
 UBDSV1 SAVING "FLOW FRONT FACE " ON UNIT7012 AT TIME STEP    1, STRESS PERIOD   4
 UBDSV1 SAVING "FLOW LOWER FACE " ON UNIT7012 AT TIME STEP    1, STRESS PERIOD   4
 UBDSV4 SAVING " GHOST-NODE HEAD" ON UNIT7012 AT TIME STEP    1, STRESS PERIOD   4
1
  FLUX ACROSS PARENT-CHILD INTERFACE AT TIME STEP  1 IN STRESS PERIOD    4
  ------------------------------------------------------------------------
 G-N FLUX        PARENT        CHILD         DIFFERENCE      % DIFFERENCE
  RATE IN:      1.7073E+03    1.7073E+03     1.5869E-03        0.0001
 RATE OUT:      1.4513E+03    1.4512E+03     6.1157E-02        0.0042
 
 SOLVING FOR HEAD 
                                                   Max.-Head-Change                        Max.-Flux-Residual
  Residual-Control   Outer-Iter.   Inner-Iter.     Column Row Layer    Max.-Head-Change    Column Row Layer    Max.-Flux-Residual            L2-New               L2-Old           Solver-Max-Delh
          0                 1           5             6    2     1       0.7134195564E-01       7    1    1       0.2895026477E+02      0.1219303038E+03      0.3967260539E-01      0.7134195564E-01
          0                 2           4             6    2     1      -0.6156085349E-02       7    1    1      -0.2907700820E+01      0.1218338102E+02      0.1219303038E+03     -0.6156085349E-02
          0                 3           3             6    2     1      -0.3110616457E-03       8    1    1      -0.1494900724E+00      0.6132826257E+00      0.1218338102E+02     -0.3110616457E-03
          0                 4           2             7    3     1      -0.1914058687E-04       7    3    1      -0.1184940711E-01      0.3869055744E-01      0.6132826257E+00     -0.1914058687E-04

    ------------------------------------------------
       NWT REQUIRED            4 OUTER ITERATIONS 
       AND A TOTAL OF         14 INNER ITERATIONS.
    ------------------------------------------------
                                                   Max.-Head-Change                        Max.-Flux-Residual
  Residual-Control   Outer-Iter.   Inner-Iter.     Column Row Layer    Max.-Head-Change    Column Row Layer    Max.-Flux-Residual            L2-New               L2-Old           Solver-Max-Delh
          0                 1           5             5    3     1       0.2010653427E-01       1    1    1       0.1040847464E+02      0.3775977408E+02      0.3869055744E-01      0.2010653427E-01
          0                 2           4             5    3     1      -0.1738497761E-02       1    1    1      -0.1038152923E+01      0.3776228692E+01      0.3775977408E+02     -0.1738497761E-02
          0                 3           3             5    3     1      -0.8449735928E-04       1    1    1      -0.5249705585E-01      0.1859213223E+00      0.3776228692E+01     -0.8449735928E-04

    ------------------------------------------------
       NWT REQUIRED            3 OUTER ITERATIONS 
       AND A TOTAL OF         12 INNER ITERATIONS.
    ------------------------------------------------
                                                   Max.-Head-Change                        Max.-Flux-Residual
  Residual-Control   Outer-Iter.   Inner-Iter.     Column Row Layer    Max.-Head-Change    Column Row Layer    Max.-Flux-Residual            L2-New               L2-Old           Solver-Max-Delh
          0                 1           5             5    3     1       0.1082692604E-01       1    3    1       0.6729879407E+01      0.2059401775E+02      0.1859213223E+00      0.1082692604E-01
          0                 2           4             5    3     1      -0.9313997255E-03       1    3    1      -0.6728520587E+00      0.2053749670E+01      0.2059401775E+02     -0.9313997255E-03
          0                 3           3             5    3     1      -0.5017235881E-04       1    1    1      -0.3823923517E-01      0.1082216991E+00      0.2053749670E+01     -0.5017235881E-04

    ------------------------------------------------
       NWT REQUIRED            3 OUTER ITERATIONS 
       AND A TOTAL OF         12 INNER ITERATIONS.
    ------------------------------------------------
                                                   Max.-Head-Change                        Max.-Flux-Residual
  Residual-Control   Outer-Iter.   Inner-Iter.     Column Row Layer    Max.-Head-Change    Column Row Layer    Max.-Flux-Residual            L2-New               L2-Old           Solver-Max-Delh
          0                 1           4             5    3     1       0.5253418898E-02       1    3    1       0.4148108688E+01      0.1070909048E+02      0.1082216991E+00      0.5253418898E-02
          0                 2           4             5    3     1      -0.4532944385E-03       1    3    1      -0.4136406376E+00      0.1074166525E+01      0.1070909048E+02     -0.4532944385E-03
          0                 3           2             5    3     1      -0.2115484188E-04       1    3    1      -0.2055554179E-01      0.5151472134E-01      0.1074166525E+01     -0.2115484188E-04

    ------------------------------------------------
       NWT REQUIRED            3 OUTER ITERATIONS 
       AND A TOTAL OF         10 INNER ITERATIONS.
    ------------------------------------------------
                                                   Max.-Head-Change                        Max.-Flux-Residual
  Residual-Control   Outer-Iter.   Inner-Iter.     Column Row Layer    Max.-Head-Change    Column Row Layer    Max.-Flux-Residual            L2-New               L2-Old           Solver-Max-Delh
          0                 1           4             1    3     1       0.2744857008E-02       1    3    1       0.2323339544E+01      0.5472762402E+01      0.5151472134E-01      0.2744857008E-02
          0                 2           3             1    2     1      -0.2362507503E-03       1    3    1      -0.2290929753E+00      0.5407750052E+00      0.5472762402E+01     -0.2362507503E-03
          0                 3           2             1    3     1      -0.1368835782E-04       1    3    1      -0.1538663340E-01      0.3665571950E-01      0.5407750052E+00     -0.1368835782E-04

    ------------------------------------------------
       NWT REQUIRED            3 OUTER ITERATIONS 
       AND A TOTAL OF          9 INNER ITERATIONS.
    ------------------------------------------------
                                                   Max.-Head-Change                        Max.-Flux-Residual
  Residual-Control   Outer-Iter.   Inner-Iter.     Column Row Layer    Max.-Head-Change    Column Row Layer    Max.-Flux-Residual            L2-New               L2-Old           Solver-Max-Delh
          0                 1           4             1    2     1       0.1397754476E-02       1    3    1       0.1214666507E+01      0.2792507290E+01      0.3665571950E-01      0.1397754476E-02
          0                 2           3             1    3     1      -0.1231250500E-03       1    3    1      -0.1320390587E+00      0.2816667514E+00      0.2792507290E+01     -0.1231250500E-03
          0                 3           2            12    1     1      -0.7274655995E-05      12    1    1      -0.1331406843E-01      0.2343706676E-01      0.2816667514E+00     -0.7274655995E-05

    ------------------------------------------------
       NWT REQUIRED            3 OUTER ITERATIONS 
       AND A TOTAL OF          9 INNER ITERATIONS.
    ------------------------------------------------
                                                   Max.-Head-Change                        Max.-Flux-Residual
  Residual-Control   Outer-Iter.   Inner-Iter.     Column Row Layer    Max.-Head-Change    Column Row Layer    Max.-Flux-Residual            L2-New               L2-Old           Solver-Max-Delh
          0                 1           4             1    2     1       0.6721824513E-03       1    3    1       0.5878344928E+00      0.1391424565E+01      0.2343706676E-01      0.6721824513E-03
          0                 2           3             1    2     1      -0.6002403921E-04       1    3    1      -0.6083914376E-01      0.1387144707E+00      0.1391424565E+01     -0.6002403921E-04

    ------------------------------------------------
       NWT REQUIRED            2 OUTER ITERATIONS 
       AND A TOTAL OF          7 INNER ITERATIONS.
    ------------------------------------------------
                                                   Max.-Head-Change                        Max.-Flux-Residual
  Residual-Control   Outer-Iter.   Inner-Iter.     Column Row Layer    Max.-Head-Change    Column Row Layer    Max.-Flux-Residual            L2-New               L2-Old           Solver-Max-Delh
          0                 1           3            12    1     1       0.3375664352E-03      12    1    1       0.3027581264E+00      0.6641470168E+00      0.1387144707E+00      0.3375664352E-03
          0                 2           2            12    2     1      -0.2879474599E-04       1    3    1      -0.3271220013E-01      0.6552336174E-01      0.6641470168E+00     -0.2879474599E-04

    ------------------------------------------------
       NWT REQUIRED            2 OUTER ITERATIONS 
       AND A TOTAL OF          5 INNER ITERATIONS.
    ------------------------------------------------
                                                   Max.-Head-Change                        Max.-Flux-Residual
  Residual-Control   Outer-Iter.   Inner-Iter.     Column Row Layer    Max.-Head-Change    Column Row Layer    Max.-Flux-Residual            L2-New               L2-Old           Solver-Max-Delh
          0                 1           3            12    1     1       0.1652312702E-03      12    1    1       0.1576527316E+00      0.2938307728E+00      0.6552336174E-01      0.1652312702E-03
          0                 2           2            12    2     2      -0.1324273583E-04      12    1    1      -0.1356091362E-01      0.3088838642E-01      0.2938307728E+00     -0.1324273583E-04

    ------------------------------------------------
       NWT REQUIRED            2 OUTER ITERATIONS 
       AND A TOTAL OF          5 INNER ITERATIONS.
    ------------------------------------------------
          0                 1           3            12    1     1       0.8552070734E-04      12    1    1       0.7720516255E-01      0.1351474409E+00      0.3088838642E-01      0.8552070734E-04

    ------------------------------------------------
       NWT REQUIRED            1 OUTER ITERATIONS 
       AND A TOTAL OF          3 INNER ITERATIONS.
    ------------------------------------------------
          0                 1           2            12    3     2       0.3968700765E-04      12    1    1       0.3494799399E-01      0.5642188955E-01      0.1351474409E+00      0.3968700765E-04

    ------------------------------------------------
       NWT REQUIRED            1 OUTER ITERATIONS 
       AND A TOTAL OF          2 INNER ITERATIONS.
    ------------------------------------------------
          0                 1           2            11    3     3       0.1311173467E-04      11    3    1       0.1299278269E-01      0.2121524796E-01      0.5642188955E-01      0.1311173467E-04

    ------------------------------------------------
       NWT REQUIRED            1 OUTER ITERATIONS 
       AND A TOTAL OF          2 INNER ITERATIONS.
    ------------------------------------------------
          0                 1           1            10    3     4       0.1065443682E-04       5    1    1      -0.7878293283E-02      0.1175551599E-01      0.2121524796E-01      0.1065443682E-04

    ------------------------------------------------
       NWT REQUIRED            1 OUTER ITERATIONS 
       AND A TOTAL OF          1 INNER ITERATIONS.
    ------------------------------------------------

 OUTPUT CONTROL FOR STRESS PERIOD      4   TIME STEP     2
    SAVE BUDGET
 UBDSV1 SAVING "         STORAGE" ON UNIT7012 AT TIME STEP    2, STRESS PERIOD   4
 UBDSV2 SAVING "   CONSTANT HEAD" ON UNIT7012 AT TIME STEP    2, STRESS PERIOD   4
 UBDSV1 SAVING "FLOW RIGHT FACE " ON UNIT7012 AT TIME STEP    2, STRESS PERIOD   4
 UBDSV1 SAVING "FLOW FRONT FACE " ON UNIT7012 AT TIME STEP    2, STRESS PERIOD   4
 UBDSV1 SAVING "FLOW LOWER FACE " ON UNIT7012 AT TIME STEP    2, STRESS PERIOD   4
 UBDSV4 SAVING " GHOST-NODE HEAD" ON UNIT7012 AT TIME STEP    2, STRESS PERIOD   4
1
  VOLUMETRIC BUDGET FOR ENTIRE MODEL AT END OF TIME STEP    2 IN STRESS PERIOD      4
  ------------------------------------------------------------------------------

     CUMULATIVE VOLUMES      L**3       RATES FOR THIS TIME STEP      L**3/T
     ------------------                 ------------------------

           IN:                                      IN:
           ---                                      ---
             STORAGE =        7521.7480               STORAGE =           0.0000
       CONSTANT HEAD =           0.0000         CONSTANT HEAD =           0.0000
     GHOST-NODE HEAD =     1702989.3750       GHOST-NODE HEAD =        1636.6263

            TOTAL IN =     1710511.1250              TOTAL IN =        1636.6263

          OUT:                                     OUT:
          ----                                     ----
             STORAGE =     1604633.8750               STORAGE =         113.5668
       CONSTANT HEAD =           0.0000         CONSTANT HEAD =           0.0000
     GHOST-NODE HEAD =      105873.9375       GHOST-NODE HEAD =        1523.0565

           TOTAL OUT =     1710507.7500             TOTAL OUT =        1636.6233

            IN - OUT =           3.3750              IN - OUT =       3.0518E-03

 PERCENT DISCREPANCY =           0.00     PERCENT DISCREPANCY =           0.00






          TIME SUMMARY AT END OF TIME STEP     2 IN STRESS PERIOD      4
                    SECONDS     MINUTES      HOURS       DAYS        YEARS
                    -----------------------------------------------------------
   TIME STEP LENGTH 1.31414E+06  21902.      365.04      15.210     4.16427E-02
 STRESS PERIOD TIME 2.62829E+06  43805.      730.08      30.420     8.32854E-02
         TOTAL TIME 1.05132E+07 1.75219E+05  2920.3      121.68     0.33314    
1
1
  FLUX ACROSS PARENT-CHILD INTERFACE AT TIME STEP  2 IN STRESS PERIOD    4
  ------------------------------------------------------------------------
 G-N FLUX        PARENT        CHILD         DIFFERENCE      % DIFFERENCE
  RATE IN:      1.6366E+03    1.6366E+03    -2.2949E-02       -0.0014
 RATE OUT:      1.5231E+03    1.5231E+03     3.1250E-02        0.0021
1
                            STRESS PERIOD NO.      5, LENGTH =   30.42000    
                            -----------------------------------------------

                              NUMBER OF TIME STEPS =     2

                               MULTIPLIER FOR DELT =     1.000

                            INITIAL TIME STEP SIZE =   15.21000    
 
 SOLVING FOR HEAD 
                                                   Max.-Head-Change                        Max.-Flux-Residual
  Residual-Control   Outer-Iter.   Inner-Iter.     Column Row Layer    Max.-Head-Change    Column Row Layer    Max.-Flux-Residual            L2-New               L2-Old           Solver-Max-Delh
          0                 1           6             5    1     1       0.9226369380E-01       1    1    1       0.6251133733E+02      0.1856458650E+03      0.1175551599E-01      0.9226369380E-01
          0                 2           5             5    1     1      -0.7961147372E-02       1    1    1      -0.6221397466E+01      0.1854012216E+02      0.1856458650E+03     -0.7961147372E-02
          0                 3           3             5    1     1      -0.3980803895E-03       1    1    1      -0.3097948293E+00      0.9228941797E+00      0.1854012216E+02     -0.3980803895E-03
          0                 4           2             8    1     1      -0.2148165550E-04       1    3    1      -0.1332481625E-01      0.5027847755E-01      0.9228941797E+00     -0.2148165550E-04

    ------------------------------------------------
       NWT REQUIRED            4 OUTER ITERATIONS 
       AND A TOTAL OF         16 INNER ITERATIONS.
    ------------------------------------------------
                                                   Max.-Head-Change                        Max.-Flux-Residual
  Residual-Control   Outer-Iter.   Inner-Iter.     Column Row Layer    Max.-Head-Change    Column Row Layer    Max.-Flux-Residual            L2-New               L2-Old           Solver-Max-Delh
          0                 1           5             3    1     1       0.3760251176E-01       1    3    1       0.2899548316E+02      0.7989814672E+02      0.5027847755E-01      0.3760251176E-01
          0                 2           4             4    1     1      -0.3237093648E-02       1    3    1      -0.2888558378E+01      0.7971419443E+01      0.7989814672E+02     -0.3237093648E-02
          0                 3           3             3    3     1      -0.1621714955E-03       1    1    1      -0.1461823530E+00      0.3983143875E+00      0.7971419443E+01     -0.1621714955E-03
          0                 4           2             1    3     1      -0.1017542555E-04       1    3    1      -0.1127447910E-01      0.2476419135E-01      0.3983143875E+00     -0.1017542555E-04

    ------------------------------------------------
       NWT REQUIRED            4 OUTER ITERATIONS 
       AND A TOTAL OF         14 INNER ITERATIONS.
    ------------------------------------------------
                                                   Max.-Head-Change                        Max.-Flux-Residual
  Residual-Control   Outer-Iter.   Inner-Iter.     Column Row Layer    Max.-Head-Change    Column Row Layer    Max.-Flux-Residual            L2-New               L2-Old           Solver-Max-Delh
          0                 1           5             1    3     1       0.1770034294E-01       1    3    1       0.1430085523E+02      0.3708701146E+02      0.2476419135E-01      0.1770034294E-01
          0                 2           4             1    3     1      -0.1520643964E-02       1    3    1      -0.1420265222E+01      0.3693909363E+01      0.3708701146E+02     -0.1520643964E-02
          0                 3           3             1    1     1      -0.7903069975E-04       1    1    1      -0.7852733845E-01      0.1896830394E+00      0.3693909363E+01     -0.7903069975E-04

    ------------------------------------------------
       NWT REQUIRED            3 OUTER ITERATIONS 
       AND A TOTAL OF         12 INNER ITERATIONS.
    ------------------------------------------------
                                                   Max.-Head-Change                        Max.-Flux-Residual
  Residual-Control   Outer-Iter.   Inner-Iter.     Column Row Layer    Max.-Head-Change    Column Row Layer    Max.-Flux-Residual            L2-New               L2-Old           Solver-Max-Delh
          0                 1           5             1    3     1       0.8197758560E-02       1    3    1       0.6790051016E+01      0.1672497437E+02      0.1896830394E+00      0.8197758560E-02
          0                 2           4             1    3     1      -0.7015034871E-03       1    3    1      -0.6701171212E+00      0.1665827835E+01      0.1672497437E+02     -0.7015034871E-03
          0                 3           3             1    3     1      -0.4022285599E-04       1    3    1      -0.4408754170E-01      0.8703282257E-01      0.1665827835E+01     -0.4022285599E-04

    ------------------------------------------------
       NWT REQUIRED            3 OUTER ITERATIONS 
       AND A TOTAL OF         12 INNER ITERATIONS.
    ------------------------------------------------
                                                   Max.-Head-Change                        Max.-Flux-Residual
  Residual-Control   Outer-Iter.   Inner-Iter.     Column Row Layer    Max.-Head-Change    Column Row Layer    Max.-Flux-Residual            L2-New               L2-Old           Solver-Max-Delh
          0                 1           4             1    3     1       0.3565816884E-02       1    3    1       0.3036361429E+01      0.7277105279E+01      0.8703282257E-01      0.3565816884E-02
          0                 2           3             1    3     1      -0.3074469371E-03       1    3    1      -0.3019112422E+00      0.7284988611E+00      0.7277105279E+01     -0.3074469371E-03
          0                 3           2             2    1     1      -0.1225353401E-04       2    1    1      -0.1144198189E-01      0.3021813973E-01      0.7284988611E+00     -0.1225353401E-04

    ------------------------------------------------
       NWT REQUIRED            3 OUTER ITERATIONS 
       AND A TOTAL OF          9 INNER ITERATIONS.
    ------------------------------------------------
                                                   Max.-Head-Change                        Max.-Flux-Residual
  Residual-Control   Outer-Iter.   Inner-Iter.     Column Row Layer    Max.-Head-Change    Column Row Layer    Max.-Flux-Residual            L2-New               L2-Old           Solver-Max-Delh
          0                 1           4            12    2     1       0.1383646652E-02      12    3    1       0.1252679349E+01      0.2984718400E+01      0.3021813973E-01      0.1383646652E-02
          0                 2           3            12    2     1      -0.1199422695E-03      12    3    1      -0.1248931748E+00      0.2931248741E+00      0.2984718400E+01     -0.1199422695E-03
          0                 3           2            12    3     1      -0.9606117084E-05       1    3    1      -0.1373930322E-01      0.2497881203E-01      0.2931248741E+00     -0.9606117084E-05

    ------------------------------------------------
       NWT REQUIRED            3 OUTER ITERATIONS 
       AND A TOTAL OF          9 INNER ITERATIONS.
    ------------------------------------------------
                                                   Max.-Head-Change                        Max.-Flux-Residual
  Residual-Control   Outer-Iter.   Inner-Iter.     Column Row Layer    Max.-Head-Change    Column Row Layer    Max.-Flux-Residual            L2-New               L2-Old           Solver-Max-Delh
          0                 1           4            12    2     1       0.6555889580E-03      12    3    1       0.6160614479E+00      0.1198124615E+01      0.2497881203E-01      0.6555889580E-03
          0                 2           3            12    3     1      -0.6230912297E-04      12    3    1      -0.7578043322E-01      0.1304458493E+00      0.1198124615E+01     -0.6230912297E-04

    ------------------------------------------------
       NWT REQUIRED            2 OUTER ITERATIONS 
       AND A TOTAL OF          7 INNER ITERATIONS.
    ------------------------------------------------
                                                   Max.-Head-Change                        Max.-Flux-Residual
  Residual-Control   Outer-Iter.   Inner-Iter.     Column Row Layer    Max.-Head-Change    Column Row Layer    Max.-Flux-Residual            L2-New               L2-Old           Solver-Max-Delh
          0                 1           3            12    2     1       0.2658525572E-03      12    3    1       0.2477235284E+00      0.4573280654E+00      0.1304458493E+00      0.2658525572E-03
          0                 2           2            12    2     2      -0.2178915791E-04      12    1    1      -0.2510189993E-01      0.4230981069E-01      0.4573280654E+00     -0.2178915791E-04

    ------------------------------------------------
       NWT REQUIRED            2 OUTER ITERATIONS 
       AND A TOTAL OF          5 INNER ITERATIONS.
    ------------------------------------------------
                                                   Max.-Head-Change                        Max.-Flux-Residual
  Residual-Control   Outer-Iter.   Inner-Iter.     Column Row Layer    Max.-Head-Change    Column Row Layer    Max.-Flux-Residual            L2-New               L2-Old           Solver-Max-Delh
          0                 1           3            12    1     2       0.1218576087E-03      12    2    1       0.8755133062E-01      0.1903872124E+00      0.4230981069E-01      0.1218576087E-03
          0                 2           2            12    1     2      -0.1089913404E-04      12    2    1      -0.1219901413E-01      0.2931137288E-01      0.1903872124E+00     -0.1089913404E-04

    ------------------------------------------------
       NWT REQUIRED            2 OUTER ITERATIONS 
       AND A TOTAL OF          5 INNER ITERATIONS.
    ------------------------------------------------
          0                 1           3             5    3     1      -0.6642740456E-04       1    3    1      -0.6122901553E-01      0.1268849163E+00      0.2931137288E-01     -0.6642740456E-04

    ------------------------------------------------
       NWT REQUIRED            1 OUTER ITERATIONS 
       AND A TOTAL OF          3 INNER ITERATIONS.
    ------------------------------------------------
          0                 1           2             1    1     1      -0.4394433192E-04       1    1    1      -0.4065959179E-01      0.8159487487E-01      0.1268849163E+00     -0.4394433192E-04

    ------------------------------------------------
       NWT REQUIRED            1 OUTER ITERATIONS 
       AND A TOTAL OF          2 INNER ITERATIONS.
    ------------------------------------------------
          0                 1           2             1    2     1      -0.2411495884E-04       1    2    1      -0.1648488978E-01      0.5193215367E-01      0.8159487487E-01     -0.2411495884E-04

    ------------------------------------------------
       NWT REQUIRED            1 OUTER ITERATIONS 
       AND A TOTAL OF          2 INNER ITERATIONS.
    ------------------------------------------------

 OUTPUT CONTROL FOR STRESS PERIOD      5   TIME STEP     1
    SAVE BUDGET
 UBDSV1 SAVING "         STORAGE" ON UNIT7012 AT TIME STEP    1, STRESS PERIOD   5
 UBDSV2 SAVING "   CONSTANT HEAD" ON UNIT7012 AT TIME STEP    1, STRESS PERIOD   5
 UBDSV1 SAVING "FLOW RIGHT FACE " ON UNIT7012 AT TIME STEP    1, STRESS PERIOD   5
 UBDSV1 SAVING "FLOW FRONT FACE " ON UNIT7012 AT TIME STEP    1, STRESS PERIOD   5
 UBDSV1 SAVING "FLOW LOWER FACE " ON UNIT7012 AT TIME STEP    1, STRESS PERIOD   5
 UBDSV4 SAVING " GHOST-NODE HEAD" ON UNIT7012 AT TIME STEP    1, STRESS PERIOD   5
1
  FLUX ACROSS PARENT-CHILD INTERFACE AT TIME STEP  1 IN STRESS PERIOD    5
  ------------------------------------------------------------------------
 G-N FLUX        PARENT        CHILD         DIFFERENCE      % DIFFERENCE
  RATE IN:      1.7243E+03    1.7243E+03    -4.4189E-02       -0.0026
 RATE OUT:      1.5509E+03    1.5508E+03     7.1411E-02        0.0046
 
 SOLVING FOR HEAD 
                                                   Max.-Head-Change                        Max.-Flux-Residual
  Residual-Control   Outer-Iter.   Inner-Iter.     Column Row Layer    Max.-Head-Change    Column Row Layer    Max.-Flux-Residual            L2-New               L2-Old           Solver-Max-Delh
          0                 1           5             5    1     1       0.4293980591E-01       1    1    1       0.2358228281E+02      0.7397595189E+02      0.5193215367E-01      0.4293980591E-01
          0                 2           4             5    1     1      -0.3701985221E-02       1    1    1      -0.2349000658E+01      0.7380978824E+01      0.7397595189E+02     -0.3701985221E-02
          0                 3           3             5    1     1      -0.1886830456E-03       1    1    1      -0.1171355053E+00      0.3754819833E+00      0.7380978824E+01     -0.1886830456E-03
          0                 4           2             3    3     1      -0.1000550023E-04       1    3    1      -0.9557152167E-02      0.2448507512E-01      0.3754819833E+00     -0.1000550023E-04

    ------------------------------------------------
       NWT REQUIRED            4 OUTER ITERATIONS 
       AND A TOTAL OF         14 INNER ITERATIONS.
    ------------------------------------------------
                                                   Max.-Head-Change                        Max.-Flux-Residual
  Residual-Control   Outer-Iter.   Inner-Iter.     Column Row Layer    Max.-Head-Change    Column Row Layer    Max.-Flux-Residual            L2-New               L2-Old           Solver-Max-Delh
          0                 1           5             4    1     1       0.1287959268E-01       1    1    1       0.9767775382E+01      0.2521383335E+02      0.2448507512E-01      0.1287959268E-01
          0                 2           4             4    1     1      -0.1110202334E-02       1    1    1      -0.9671376960E+00      0.2514506402E+01      0.2521383335E+02     -0.1110202334E-02
          0                 3           3             5    1     1      -0.5725663452E-04       1    1    1      -0.4663469642E-01      0.1266619891E+00      0.2514506402E+01     -0.5725663452E-04

    ------------------------------------------------
       NWT REQUIRED            3 OUTER ITERATIONS 
       AND A TOTAL OF         12 INNER ITERATIONS.
    ------------------------------------------------
                                                   Max.-Head-Change                        Max.-Flux-Residual
  Residual-Control   Outer-Iter.   Inner-Iter.     Column Row Layer    Max.-Head-Change    Column Row Layer    Max.-Flux-Residual            L2-New               L2-Old           Solver-Max-Delh
          0                 1           4             4    3     1       0.6762145196E-02       1    1    1       0.5113580207E+01      0.1372011323E+02      0.1266619891E+00      0.6762145196E-02
          0                 2           4             4    3     1      -0.5843811854E-03       1    1    1      -0.5085633874E+00      0.1366686152E+01      0.1372011323E+02     -0.5843811854E-03
          0                 3           2             1    1     1      -0.3123829124E-04       1    1    1      -0.3051583690E-01      0.7430411701E-01      0.1366686152E+01     -0.3123829124E-04

    ------------------------------------------------
       NWT REQUIRED            3 OUTER ITERATIONS 
       AND A TOTAL OF         10 INNER ITERATIONS.
    ------------------------------------------------
                                                   Max.-Head-Change                        Max.-Flux-Residual
  Residual-Control   Outer-Iter.   Inner-Iter.     Column Row Layer    Max.-Head-Change    Column Row Layer    Max.-Flux-Residual            L2-New               L2-Old           Solver-Max-Delh
          0                 1           4             1    3     1       0.3678257000E-02       1    3    1       0.3044046703E+01      0.7543740247E+01      0.7430411701E-01      0.3678257000E-02
          0                 2           3             1    3     1      -0.3213490851E-03       1    3    1      -0.3114037182E+00      0.7569107922E+00      0.7543740247E+01     -0.3213490851E-03
          0                 3           2             2    1     1      -0.1785129521E-04       1    1    1      -0.1509791648E-01      0.4221899517E-01      0.7569107922E+00     -0.1785129521E-04

    ------------------------------------------------
       NWT REQUIRED            3 OUTER ITERATIONS 
       AND A TOTAL OF          9 INNER ITERATIONS.
    ------------------------------------------------
                                                   Max.-Head-Change                        Max.-Flux-Residual
  Residual-Control   Outer-Iter.   Inner-Iter.     Column Row Layer    Max.-Head-Change    Column Row Layer    Max.-Flux-Residual            L2-New               L2-Old           Solver-Max-Delh
          0                 1           4             1    3     1       0.1960012542E-02       1    3    1       0.1667619261E+01      0.3981618288E+01      0.4221899517E-01      0.1960012542E-02
          0                 2           3             1    3     1      -0.1637527105E-03       1    3    1      -0.1600355771E+00      0.3945459351E+00      0.3981618288E+01     -0.1637527105E-03
          0                 3           2             1    3     1      -0.1119147491E-04       1    3    1      -0.1148107619E-01      0.2977710214E-01      0.3945459351E+00     -0.1119147491E-04

    ------------------------------------------------
       NWT REQUIRED            3 OUTER ITERATIONS 
       AND A TOTAL OF          9 INNER ITERATIONS.
    ------------------------------------------------
                                                   Max.-Head-Change                        Max.-Flux-Residual
  Residual-Control   Outer-Iter.   Inner-Iter.     Column Row Layer    Max.-Head-Change    Column Row Layer    Max.-Flux-Residual            L2-New               L2-Old           Solver-Max-Delh
          0                 1           4             1    3     1       0.9673041354E-03       1    3    1       0.8339234834E+00      0.2015837858E+01      0.2977710214E-01      0.9673041354E-03
          0                 2           3             1    3     1      -0.8340861441E-04       1    3    1      -0.8552376978E-01      0.2053476722E+00      0.2015837858E+01     -0.8340861441E-04

    ------------------------------------------------
       NWT REQUIRED            2 OUTER ITERATIONS 
       AND A TOTAL OF          7 INNER ITERATIONS.
    ------------------------------------------------
                                                   Max.-Head-Change                        Max.-Flux-Residual
  Residual-Control   Outer-Iter.   Inner-Iter.     Column Row Layer    Max.-Head-Change    Column Row Layer    Max.-Flux-Residual            L2-New               L2-Old           Solver-Max-Delh
          0                 1           3             1    3     1       0.4459368904E-03       1    3    1       0.3980683231E+00      0.9653247563E+00      0.2053476722E+00      0.4459368904E-03
          0                 2           3            12    2     1      -0.4043699430E-04       1    3    1      -0.4121933883E-01      0.9861949310E-01      0.9653247563E+00     -0.4043699430E-04

    ------------------------------------------------
       NWT REQUIRED            2 OUTER ITERATIONS 
       AND A TOTAL OF          6 INNER ITERATIONS.
    ------------------------------------------------
                                                   Max.-Head-Change                        Max.-Flux-Residual
  Residual-Control   Outer-Iter.   Inner-Iter.     Column Row Layer    Max.-Head-Change    Column Row Layer    Max.-Flux-Residual            L2-New               L2-Old           Solver-Max-Delh
          0                 1           3            12    2     1       0.2302651315E-03      12    3    1       0.1952235910E+00      0.4590834452E+00      0.9861949310E-01      0.2302651315E-03
          0                 2           2            12    2     2      -0.1859944889E-04      12    3    1      -0.1889782093E-01      0.4576781745E-01      0.4590834452E+00     -0.1859944889E-04

    ------------------------------------------------
       NWT REQUIRED            2 OUTER ITERATIONS 
       AND A TOTAL OF          5 INNER ITERATIONS.
    ------------------------------------------------
                                                   Max.-Head-Change                        Max.-Flux-Residual
  Residual-Control   Outer-Iter.   Inner-Iter.     Column Row Layer    Max.-Head-Change    Column Row Layer    Max.-Flux-Residual            L2-New               L2-Old           Solver-Max-Delh
          0                 1           3            12    2     2       0.1092505857E-03      12    3    1       0.9715925803E-01      0.2061888806E+00      0.4576781745E-01      0.1092505857E-03
          0                 2           2            12    2     2      -0.8787353410E-05      12    3    1      -0.9424192307E-02      0.1938825289E-01      0.2061888806E+00     -0.8787353410E-05

    ------------------------------------------------
       NWT REQUIRED            2 OUTER ITERATIONS 
       AND A TOTAL OF          5 INNER ITERATIONS.
    ------------------------------------------------
          0                 1           3            12    1     3       0.5966393742E-04      12    1    1       0.4066479468E-01      0.9175850279E-01      0.1938825289E-01      0.5966393742E-04

    ------------------------------------------------
       NWT REQUIRED            1 OUTER ITERATIONS 
       AND A TOTAL OF          3 INNER ITERATIONS.
    ------------------------------------------------
          0                 1           2            11    1     2       0.2970863055E-04      12    3    1       0.1902248696E-01      0.3715299663E-01      0.9175850279E-01      0.2970863055E-04

    ------------------------------------------------
       NWT REQUIRED            1 OUTER ITERATIONS 
       AND A TOTAL OF          2 INNER ITERATIONS.
    ------------------------------------------------
          0                 1           2             7    1     3       0.1502157328E-04      11    1    1       0.1459671010E-01      0.1954479722E-01      0.3715299663E-01      0.1502157328E-04

    ------------------------------------------------
       NWT REQUIRED            1 OUTER ITERATIONS 
       AND A TOTAL OF          2 INNER ITERATIONS.
    ------------------------------------------------

 OUTPUT CONTROL FOR STRESS PERIOD      5   TIME STEP     2
    SAVE BUDGET
 UBDSV1 SAVING "         STORAGE" ON UNIT7012 AT TIME STEP    2, STRESS PERIOD   5
 UBDSV2 SAVING "   CONSTANT HEAD" ON UNIT7012 AT TIME STEP    2, STRESS PERIOD   5
 UBDSV1 SAVING "FLOW RIGHT FACE " ON UNIT7012 AT TIME STEP    2, STRESS PERIOD   5
 UBDSV1 SAVING "FLOW FRONT FACE " ON UNIT7012 AT TIME STEP    2, STRESS PERIOD   5
 UBDSV1 SAVING "FLOW LOWER FACE " ON UNIT7012 AT TIME STEP    2, STRESS PERIOD   5
 UBDSV4 SAVING " GHOST-NODE HEAD" ON UNIT7012 AT TIME STEP    2, STRESS PERIOD   5
1
  VOLUMETRIC BUDGET FOR ENTIRE MODEL AT END OF TIME STEP    2 IN STRESS PERIOD      5
  ------------------------------------------------------------------------------

     CUMULATIVE VOLUMES      L**3       RATES FOR THIS TIME STEP      L**3/T
     ------------------                 ------------------------

           IN:                                      IN:
           ---                                      ---
             STORAGE =        7523.0972               STORAGE =       8.8702E-02
       CONSTANT HEAD =           0.0000         CONSTANT HEAD =           0.0000
     GHOST-NODE HEAD =     1754697.7500       GHOST-NODE HEAD =        1675.2856

            TOTAL IN =     1762220.8750              TOTAL IN =        1675.3744

          OUT:                                     OUT:
          ----                                     ----
             STORAGE =     1608337.2500               STORAGE =          69.9460
       CONSTANT HEAD =           0.0000         CONSTANT HEAD =           0.0000
     GHOST-NODE HEAD =      153879.8594       GHOST-NODE HEAD =        1605.4240

           TOTAL OUT =     1762217.1250             TOTAL OUT =        1675.3699

            IN - OUT =           3.7500              IN - OUT =       4.5166E-03

 PERCENT DISCREPANCY =           0.00     PERCENT DISCREPANCY =           0.00






          TIME SUMMARY AT END OF TIME STEP     2 IN STRESS PERIOD      5
                    SECONDS     MINUTES      HOURS       DAYS        YEARS
                    -----------------------------------------------------------
   TIME STEP LENGTH 1.31414E+06  21902.      365.04      15.210     4.16427E-02
 STRESS PERIOD TIME 2.62829E+06  43805.      730.08      30.420     8.32854E-02
         TOTAL TIME 1.31414E+07 2.19024E+05  3650.4      152.10     0.41643    
1
1
  FLUX ACROSS PARENT-CHILD INTERFACE AT TIME STEP  2 IN STRESS PERIOD    5
  ------------------------------------------------------------------------
 G-N FLUX        PARENT        CHILD         DIFFERENCE      % DIFFERENCE
  RATE IN:      1.6753E+03    1.6753E+03    -3.5156E-02       -0.0021
 RATE OUT:      1.6055E+03    1.6054E+03     4.3091E-02        0.0027
1
                            STRESS PERIOD NO.      6, LENGTH =   30.42000    
                            -----------------------------------------------

                              NUMBER OF TIME STEPS =     2

                               MULTIPLIER FOR DELT =     1.000

                            INITIAL TIME STEP SIZE =   15.21000    
 
 SOLVING FOR HEAD 
                                                   Max.-Head-Change                        Max.-Flux-Residual
  Residual-Control   Outer-Iter.   Inner-Iter.     Column Row Layer    Max.-Head-Change    Column Row Layer    Max.-Flux-Residual            L2-New               L2-Old           Solver-Max-Delh
          0                 1           5            12    3     3      -0.2389899921E-01       5    1    1       0.1026575043E+02      0.3241366907E+02      0.1954479722E-01     -0.2389899921E-01
          0                 2           4            12    3     3       0.2064122519E-02       5    1    1      -0.1028480159E+01      0.3240958381E+01      0.3241366907E+02      0.2064122519E-02
          0                 3           3            12    3     3       0.1032207400E-03       4    1    1      -0.4965342244E-01      0.1562807858E+00      0.3240958381E+01      0.1032207400E-03
          0                 4           2             6    1     1      -0.8027619690E-05       9    1    1      -0.8094042889E-02      0.1851795597E-01      0.1562807858E+00     -0.8027619690E-05

    ------------------------------------------------
       NWT REQUIRED            4 OUTER ITERATIONS 
       AND A TOTAL OF         14 INNER ITERATIONS.
    ------------------------------------------------
                                                   Max.-Head-Change                        Max.-Flux-Residual
  Residual-Control   Outer-Iter.   Inner-Iter.     Column Row Layer    Max.-Head-Change    Column Row Layer    Max.-Flux-Residual            L2-New               L2-Old           Solver-Max-Delh
          0                 1           5            12    3     3      -0.1396626798E-01      12    3    1      -0.6145757028E+01      0.1257203461E+02      0.1851795597E-01     -0.1396626798E-01
          0                 2           4            12    3     3       0.1205893005E-02      12    3    1       0.6100063071E+00      0.1254975552E+01      0.1257203461E+02      0.1205893005E-02
          0                 3           2            12    3     3       0.6005373919E-04      12    3    1       0.3253225909E-01      0.6411695956E-01      0.1254975552E+01      0.6005373919E-04

    ------------------------------------------------
       NWT REQUIRED            3 OUTER ITERATIONS 
       AND A TOTAL OF         11 INNER ITERATIONS.
    ------------------------------------------------
                                                   Max.-Head-Change                        Max.-Flux-Residual
  Residual-Control   Outer-Iter.   Inner-Iter.     Column Row Layer    Max.-Head-Change    Column Row Layer    Max.-Flux-Residual            L2-New               L2-Old           Solver-Max-Delh
          0                 1           4            12    1     3      -0.7030047428E-02      12    1    1      -0.2377630152E+01      0.4627167942E+01      0.6411695956E-01     -0.7030047428E-02
          0                 2           3            12    1     3       0.6053277344E-03      12    1    1       0.2403097057E+00      0.4682832368E+00      0.4627167942E+01      0.6053277344E-03
          0                 3           2            12    1     3       0.3077615335E-04      12    1    1       0.1330361230E-01      0.2898768651E-01      0.4682832368E+00      0.3077615335E-04

    ------------------------------------------------
       NWT REQUIRED            3 OUTER ITERATIONS 
       AND A TOTAL OF          9 INNER ITERATIONS.
    ------------------------------------------------
                                                   Max.-Head-Change                        Max.-Flux-Residual
  Residual-Control   Outer-Iter.   Inner-Iter.     Column Row Layer    Max.-Head-Change    Column Row Layer    Max.-Flux-Residual            L2-New               L2-Old           Solver-Max-Delh
          0                 1           4            12    1     3      -0.3148248454E-02      12    1    1      -0.7853873511E+00      0.2062170099E+01      0.2898768651E-01     -0.3148248454E-02
          0                 2           3            12    1     3       0.2712186395E-03      12    1    1       0.7684943278E-01      0.2102921453E+00      0.2062170099E+01      0.2712186395E-03
          0                 3           1            12    1     3       0.1262226835E-04       5    3    1      -0.9011137125E-02      0.1821041190E-01      0.2102921453E+00      0.1262226835E-04

    ------------------------------------------------
       NWT REQUIRED            3 OUTER ITERATIONS 
       AND A TOTAL OF          8 INNER ITERATIONS.
    ------------------------------------------------
                                                   Max.-Head-Change                        Max.-Flux-Residual
  Residual-Control   Outer-Iter.   Inner-Iter.     Column Row Layer    Max.-Head-Change    Column Row Layer    Max.-Flux-Residual            L2-New               L2-Old           Solver-Max-Delh
          0                 1           3            11    1     3      -0.1233735486E-02       1    3    1       0.5866354607E+00      0.1227702852E+01      0.1821041190E-01     -0.1233735486E-02
          0                 2           3            11    1     3       0.1049137343E-03       1    3    1      -0.5660245946E-01      0.1247437716E+00      0.1227702852E+01      0.1049137343E-03
          0                 3           1            12    1     3       0.4839813826E-05       6    1    1       0.7005351828E-02      0.1170232577E-01      0.1247437716E+00      0.4839813826E-05

    ------------------------------------------------
       NWT REQUIRED            3 OUTER ITERATIONS 
       AND A TOTAL OF          7 INNER ITERATIONS.
    ------------------------------------------------
                                                   Max.-Head-Change                        Max.-Flux-Residual
  Residual-Control   Outer-Iter.   Inner-Iter.     Column Row Layer    Max.-Head-Change    Column Row Layer    Max.-Flux-Residual            L2-New               L2-Old           Solver-Max-Delh
          0                 1           3            11    1     3      -0.4065631324E-03       1    3    1       0.3868971708E+00      0.7306934203E+00      0.1170232577E-01     -0.4065631324E-03
          0                 2           2            11    1     3       0.3407095442E-04       1    3    1      -0.4322985973E-01      0.7604305089E-01      0.7306934203E+00      0.3407095442E-04

    ------------------------------------------------
       NWT REQUIRED            2 OUTER ITERATIONS 
       AND A TOTAL OF          5 INNER ITERATIONS.
    ------------------------------------------------
                                                   Max.-Head-Change                        Max.-Flux-Residual
  Residual-Control   Outer-Iter.   Inner-Iter.     Column Row Layer    Max.-Head-Change    Column Row Layer    Max.-Flux-Residual            L2-New               L2-Old           Solver-Max-Delh
          0                 1           3             1    3     1       0.1898532470E-03       1    3    1       0.1944210416E+00      0.3958370041E+00      0.7604305089E-01      0.1898532470E-03
          0                 2           2             1    2     1      -0.1514193736E-04       1    1    1      -0.1822213875E-01      0.3705935766E-01      0.3958370041E+00     -0.1514193736E-04

    ------------------------------------------------
       NWT REQUIRED            2 OUTER ITERATIONS 
       AND A TOTAL OF          5 INNER ITERATIONS.
    ------------------------------------------------
                                                   Max.-Head-Change                        Max.-Flux-Residual
  Residual-Control   Outer-Iter.   Inner-Iter.     Column Row Layer    Max.-Head-Change    Column Row Layer    Max.-Flux-Residual            L2-New               L2-Old           Solver-Max-Delh
          0                 1           3            12    2     1       0.1163360134E-03      12    1    1       0.1022589567E+00      0.2299618126E+00      0.3705935766E-01      0.1163360134E-03
          0                 2           2            12    1     1      -0.1485263571E-04      12    1    1      -0.1779643848E-01      0.3495534501E-01      0.2299618126E+00     -0.1485263571E-04

    ------------------------------------------------
       NWT REQUIRED            2 OUTER ITERATIONS 
       AND A TOTAL OF          5 INNER ITERATIONS.
    ------------------------------------------------
          0                 1           3            12    1     2       0.6893845565E-04      12    1    1       0.6438641460E-01      0.1170877243E+00      0.3495534501E-01      0.6893845565E-04

    ------------------------------------------------
       NWT REQUIRED            1 OUTER ITERATIONS 
       AND A TOTAL OF          3 INNER ITERATIONS.
    ------------------------------------------------
          0                 1           2             1    1     2       0.3936825469E-04       1    3    1       0.2576730237E-01      0.5977325784E-01      0.1170877243E+00      0.3936825469E-04

    ------------------------------------------------
       NWT REQUIRED            1 OUTER ITERATIONS 
       AND A TOTAL OF          2 INNER ITERATIONS.
    ------------------------------------------------
          0                 1           2            11    1     3       0.3266595840E-04      12    1    1       0.3022859816E-01      0.4793997175E-01      0.5977325784E-01      0.3266595840E-04

    ------------------------------------------------
       NWT REQUIRED            1 OUTER ITERATIONS 
       AND A TOTAL OF          2 INNER ITERATIONS.
    ------------------------------------------------

 OUTPUT CONTROL FOR STRESS PERIOD      6   TIME STEP     1
    SAVE BUDGET
 UBDSV1 SAVING "         STORAGE" ON UNIT7012 AT TIME STEP    1, STRESS PERIOD   6
 UBDSV2 SAVING "   CONSTANT HEAD" ON UNIT7012 AT TIME STEP    1, STRESS PERIOD   6
 UBDSV1 SAVING "FLOW RIGHT FACE " ON UNIT7012 AT TIME STEP    1, STRESS PERIOD   6
 UBDSV1 SAVING "FLOW FRONT FACE " ON UNIT7012 AT TIME STEP    1, STRESS PERIOD   6
 UBDSV1 SAVING "FLOW LOWER FACE " ON UNIT7012 AT TIME STEP    1, STRESS PERIOD   6
 UBDSV4 SAVING " GHOST-NODE HEAD" ON UNIT7012 AT TIME STEP    1, STRESS PERIOD   6
1
  FLUX ACROSS PARENT-CHILD INTERFACE AT TIME STEP  1 IN STRESS PERIOD    6
  ------------------------------------------------------------------------
 G-N FLUX        PARENT        CHILD         DIFFERENCE      % DIFFERENCE
  RATE IN:      1.6459E+03    1.6458E+03     3.1006E-02        0.0019
 RATE OUT:      1.6346E+03    1.6346E+03     1.5259E-02        0.0009
 
 SOLVING FOR HEAD 
                                                   Max.-Head-Change                        Max.-Flux-Residual
  Residual-Control   Outer-Iter.   Inner-Iter.     Column Row Layer    Max.-Head-Change    Column Row Layer    Max.-Flux-Residual            L2-New               L2-Old           Solver-Max-Delh
          0                 1           5            12    3     3      -0.3572557816E-01       1    3    1      -0.2137722504E+02      0.4466981446E+02      0.4793997175E-01     -0.3572557816E-01
          0                 2           4            12    3     3       0.3084696797E-02       1    3    1       0.2130260074E+01      0.4463676697E+01      0.4466981446E+02      0.3084696797E-02
          0                 3           3            12    3     3       0.1543867079E-03      12    3    1       0.1081572579E+00      0.2315802133E+00      0.4463676697E+01      0.1543867079E-03
          0                 4           1            12    3     3       0.7127936101E-05       7    3    1       0.7368015242E-02      0.1253379322E-01      0.2315802133E+00      0.7127936101E-05

    ------------------------------------------------
       NWT REQUIRED            4 OUTER ITERATIONS 
       AND A TOTAL OF         13 INNER ITERATIONS.
    ------------------------------------------------
                                                   Max.-Head-Change                        Max.-Flux-Residual
  Residual-Control   Outer-Iter.   Inner-Iter.     Column Row Layer    Max.-Head-Change    Column Row Layer    Max.-Flux-Residual            L2-New               L2-Old           Solver-Max-Delh
          0                 1           5            12    3     3      -0.2013861043E-01      12    3    1      -0.1191220316E+02      0.2440811316E+02      0.1253379322E-01     -0.2013861043E-01
          0                 2           4            12    3     3       0.1738841782E-02      12    3    1       0.1198013682E+01      0.2455222404E+01      0.2440811316E+02      0.1738841782E-02
          0                 3           3            12    3     3       0.8702446302E-04      12    3    1       0.5564673364E-01      0.1167393545E+00      0.2455222404E+01      0.8702446302E-04

    ------------------------------------------------
       NWT REQUIRED            3 OUTER ITERATIONS 
       AND A TOTAL OF         12 INNER ITERATIONS.
    ------------------------------------------------
                                                   Max.-Head-Change                        Max.-Flux-Residual
  Residual-Control   Outer-Iter.   Inner-Iter.     Column Row Layer    Max.-Head-Change    Column Row Layer    Max.-Flux-Residual            L2-New               L2-Old           Solver-Max-Delh
          0                 1           4            12    1     3      -0.9923544751E-02      12    1    1      -0.5038112019E+01      0.1127460561E+02      0.1167393545E+00     -0.9923544751E-02
          0                 2           4            12    1     3       0.8557577473E-03      12    1    1       0.5088031221E+00      0.1132299995E+01      0.1127460561E+02      0.8557577473E-03
          0                 3           2            12    1     3       0.4274445553E-04      12    1    1       0.2136413334E-01      0.4947466891E-01      0.1132299995E+01      0.4274445553E-04

    ------------------------------------------------
       NWT REQUIRED            3 OUTER ITERATIONS 
       AND A TOTAL OF         10 INNER ITERATIONS.
    ------------------------------------------------
                                                   Max.-Head-Change                        Max.-Flux-Residual
  Residual-Control   Outer-Iter.   Inner-Iter.     Column Row Layer    Max.-Head-Change    Column Row Layer    Max.-Flux-Residual            L2-New               L2-Old           Solver-Max-Delh
          0                 1           4            12    1     3      -0.4630555591E-02      12    1    1      -0.2201174053E+01      0.4885165652E+01      0.4947466891E-01     -0.4630555591E-02
          0                 2           3            12    1     3       0.3991887784E-03      12    1    1       0.2195414550E+00      0.4885268842E+00      0.4885165652E+01      0.3991887784E-03
          0                 3           2            12    1     3       0.2000804524E-04      10    1    1       0.1258884382E-01      0.2909088570E-01      0.4885268842E+00      0.2000804524E-04

    ------------------------------------------------
       NWT REQUIRED            3 OUTER ITERATIONS 
       AND A TOTAL OF          9 INNER ITERATIONS.
    ------------------------------------------------
                                                   Max.-Head-Change                        Max.-Flux-Residual
  Residual-Control   Outer-Iter.   Inner-Iter.     Column Row Layer    Max.-Head-Change    Column Row Layer    Max.-Flux-Residual            L2-New               L2-Old           Solver-Max-Delh
          0                 1           4            11    1     3      -0.1967027272E-02      12    1    1      -0.8659252001E+00      0.2113642344E+01      0.2909088570E-01     -0.1967027272E-02
          0                 2           3            11    1     3       0.1694025575E-03      12    1    1       0.7993869757E-01      0.2094487194E+00      0.2113642344E+01      0.1694025575E-03
          0                 3           2            11    1     3       0.8458625762E-05       3    1    1       0.8374109631E-02      0.1942490093E-01      0.2094487194E+00      0.8458625762E-05

    ------------------------------------------------
       NWT REQUIRED            3 OUTER ITERATIONS 
       AND A TOTAL OF          9 INNER ITERATIONS.
    ------------------------------------------------
                                                   Max.-Head-Change                        Max.-Flux-Residual
  Residual-Control   Outer-Iter.   Inner-Iter.     Column Row Layer    Max.-Head-Change    Column Row Layer    Max.-Flux-Residual            L2-New               L2-Old           Solver-Max-Delh
          0                 1           3            10    1     3      -0.7249422225E-03      10    1    1      -0.2854349188E+00      0.8787990349E+00      0.1942490093E-01     -0.7249422225E-03
          0                 2           2            11    1     3       0.6171488005E-04      12    1    1       0.3506837360E-01      0.8611811968E-01      0.8787990349E+00      0.6171488005E-04

    ------------------------------------------------
       NWT REQUIRED            2 OUTER ITERATIONS 
       AND A TOTAL OF          5 INNER ITERATIONS.
    ------------------------------------------------
                                                   Max.-Head-Change                        Max.-Flux-Residual
  Residual-Control   Outer-Iter.   Inner-Iter.     Column Row Layer    Max.-Head-Change    Column Row Layer    Max.-Flux-Residual            L2-New               L2-Old           Solver-Max-Delh
          0                 1           3            11    1     3      -0.2155880070E-03      10    1    1      -0.1111295455E+00      0.3378300981E+00      0.8611811968E-01     -0.2155880070E-03
          0                 2           2            11    1     3       0.1831313249E-04      10    1    1       0.1628598105E-01      0.3851693259E-01      0.3378300981E+00      0.1831313249E-04

    ------------------------------------------------
       NWT REQUIRED            2 OUTER ITERATIONS 
       AND A TOTAL OF          5 INNER ITERATIONS.
    ------------------------------------------------
          0                 1           3             8    3     3      -0.7124740952E-04      12    2    1       0.4639507789E-01      0.1250902548E+00      0.3851693259E-01     -0.7124740952E-04

    ------------------------------------------------
       NWT REQUIRED            1 OUTER ITERATIONS 
       AND A TOTAL OF          3 INNER ITERATIONS.
    ------------------------------------------------
          0                 1           2             7    1     3       0.5060198263E-04      12    2    1       0.2406739269E-01      0.5979736839E-01      0.1250902548E+00      0.5060198263E-04

    ------------------------------------------------
       NWT REQUIRED            1 OUTER ITERATIONS 
       AND A TOTAL OF          2 INNER ITERATIONS.
    ------------------------------------------------
          0                 1           2            12    1     3       0.5067272548E-04      12    1    1       0.4010409751E-01      0.7196611727E-01      0.5979736839E-01      0.5067272548E-04

    ------------------------------------------------
       NWT REQUIRED            1 OUTER ITERATIONS 
       AND A TOTAL OF          2 INNER ITERATIONS.
    ------------------------------------------------
          0                 1           2            11    1     3       0.2281460964E-04      11    3    1       0.1496067719E-01      0.4040210171E-01      0.7196611727E-01      0.2281460964E-04

    ------------------------------------------------
       NWT REQUIRED            1 OUTER ITERATIONS 
       AND A TOTAL OF          2 INNER ITERATIONS.
    ------------------------------------------------

 OUTPUT CONTROL FOR STRESS PERIOD      6   TIME STEP     2
    PRINT BUDGET
    SAVE HEAD FOR ALL LAYERS
    SAVE BUDGET
 UBDSV1 SAVING "         STORAGE" ON UNIT7012 AT TIME STEP    2, STRESS PERIOD   6
 UBDSV2 SAVING "   CONSTANT HEAD" ON UNIT7012 AT TIME STEP    2, STRESS PERIOD   6
 UBDSV1 SAVING "FLOW RIGHT FACE " ON UNIT7012 AT TIME STEP    2, STRESS PERIOD   6
 UBDSV1 SAVING "FLOW FRONT FACE " ON UNIT7012 AT TIME STEP    2, STRESS PERIOD   6
 UBDSV1 SAVING "FLOW LOWER FACE " ON UNIT7012 AT TIME STEP    2, STRESS PERIOD   6
 UBDSV4 SAVING " GHOST-NODE HEAD" ON UNIT7012 AT TIME STEP    2, STRESS PERIOD   6

 HEAD WILL BE SAVED ON UNIT 2212 AT END OF TIME STEP     2, STRESS PERIOD      6
1
  VOLUMETRIC BUDGET FOR ENTIRE MODEL AT END OF TIME STEP    2 IN STRESS PERIOD      6
  ------------------------------------------------------------------------------

     CUMULATIVE VOLUMES      L**3       RATES FOR THIS TIME STEP      L**3/T
     ------------------                 ------------------------

           IN:                                      IN:
           ---                                      ---
             STORAGE =        8080.6357               STORAGE =          33.6806
       CONSTANT HEAD =           0.0000         CONSTANT HEAD =           0.0000
     GHOST-NODE HEAD =     1804451.2500       GHOST-NODE HEAD =        1625.2585

            TOTAL IN =     1812531.8750              TOTAL IN =        1658.9392

          OUT:                                     OUT:
          ----                                     ----
             STORAGE =     1608553.7500               STORAGE =           0.0000
       CONSTANT HEAD =           0.0000         CONSTANT HEAD =           0.0000
     GHOST-NODE HEAD =      203974.9844       GHOST-NODE HEAD =        1658.9598

           TOTAL OUT =     1812528.7500             TOTAL OUT =        1658.9598

            IN - OUT =           3.1250              IN - OUT =      -2.0630E-02

 PERCENT DISCREPANCY =           0.00     PERCENT DISCREPANCY =          -0.00






          TIME SUMMARY AT END OF TIME STEP     2 IN STRESS PERIOD      6
                    SECONDS     MINUTES      HOURS       DAYS        YEARS
                    -----------------------------------------------------------
   TIME STEP LENGTH 1.31414E+06  21902.      365.04      15.210     4.16427E-02
 STRESS PERIOD TIME 2.62829E+06  43805.      730.08      30.420     8.32854E-02
         TOTAL TIME 1.57697E+07 2.62829E+05  4380.5      182.52     0.49971    
1
1
  FLUX ACROSS PARENT-CHILD INTERFACE AT TIME STEP  2 IN STRESS PERIOD    6
  ------------------------------------------------------------------------
 G-N FLUX        PARENT        CHILD         DIFFERENCE      % DIFFERENCE
  RATE IN:      1.6253E+03    1.6253E+03     7.0435E-02        0.0043
 RATE OUT:      1.6589E+03    1.6590E+03    -3.4668E-02       -0.0021
1
                            STRESS PERIOD NO.      7, LENGTH =   30.42000    
                            -----------------------------------------------

                              NUMBER OF TIME STEPS =     2

                               MULTIPLIER FOR DELT =     1.000

                            INITIAL TIME STEP SIZE =   15.21000    
 
 SOLVING FOR HEAD 
                                                   Max.-Head-Change                        Max.-Flux-Residual
  Residual-Control   Outer-Iter.   Inner-Iter.     Column Row Layer    Max.-Head-Change    Column Row Layer    Max.-Flux-Residual            L2-New               L2-Old           Solver-Max-Delh
          0                 1           6             1    3     1      -0.9109217129E-01       1    3    1      -0.8086600336E+02      0.1647168493E+03      0.4040210171E-01     -0.9109217129E-01
          0                 2           5             1    3     1       0.7824991025E-02       1    3    1       0.8038236732E+01      0.1642742375E+02      0.1647168493E+03      0.7824991025E-02
          0                 3           3             1    3     1       0.3970551699E-03       1    3    1       0.4095125735E+00      0.8275683301E+00      0.1642742375E+02      0.3970551699E-03
          0                 4           2             1    3     2       0.1652781415E-04       1    1    1       0.1996066282E-01      0.3948993389E-01      0.8275683301E+00      0.1652781415E-04

    ------------------------------------------------
       NWT REQUIRED            4 OUTER ITERATIONS 
       AND A TOTAL OF         16 INNER ITERATIONS.
    ------------------------------------------------
                                                   Max.-Head-Change                        Max.-Flux-Residual
  Residual-Control   Outer-Iter.   Inner-Iter.     Column Row Layer    Max.-Head-Change    Column Row Layer    Max.-Flux-Residual            L2-New               L2-Old           Solver-Max-Delh
          0                 1           5            12    1     2      -0.5297100432E-01      12    1    1      -0.4365809139E+02      0.1034505332E+03      0.3948993389E-01     -0.5297100432E-01
          0                 2           4            12    1     2       0.4577141537E-02      12    1    1       0.4383612516E+01      0.1034984080E+02      0.1034505332E+03      0.4577141537E-02
          0                 3           3            12    1     2       0.2288958961E-03      12    1    1       0.2171001497E+00      0.5150743455E+00      0.1034984080E+02      0.2288958961E-03
          0                 4           2            11    1     1       0.1239017454E-04      12    1    1       0.1054642617E-01      0.3235551715E-01      0.5150743455E+00      0.1239017454E-04

    ------------------------------------------------
       NWT REQUIRED            4 OUTER ITERATIONS 
       AND A TOTAL OF         14 INNER ITERATIONS.
    ------------------------------------------------
                                                   Max.-Head-Change                        Max.-Flux-Residual
  Residual-Control   Outer-Iter.   Inner-Iter.     Column Row Layer    Max.-Head-Change    Column Row Layer    Max.-Flux-Residual            L2-New               L2-Old           Solver-Max-Delh
          0                 1           5            12    1     2      -0.2540842454E-01      12    1    1      -0.2058703585E+02      0.4826247022E+02      0.3235551715E-01     -0.2540842454E-01
          0                 2           4            12    1     2       0.2195850522E-02      12    1    1       0.2071145285E+01      0.4836238523E+01      0.4826247022E+02      0.2195850522E-02
          0                 3           3            12    1     2       0.1095151520E-03      12    1    1       0.1054411279E+00      0.2352610205E+00      0.4836238523E+01      0.1095151520E-03
          0                 4           2             8    1     1       0.8894102773E-05       7    3    1       0.7802937820E-02      0.2235453206E-01      0.2352610205E+00      0.8894102773E-05

    ------------------------------------------------
       NWT REQUIRED            4 OUTER ITERATIONS 
       AND A TOTAL OF         14 INNER ITERATIONS.
    ------------------------------------------------
                                                   Max.-Head-Change                        Max.-Flux-Residual
  Residual-Control   Outer-Iter.   Inner-Iter.     Column Row Layer    Max.-Head-Change    Column Row Layer    Max.-Flux-Residual            L2-New               L2-Old           Solver-Max-Delh
          0                 1           5            12    1     2      -0.1142088127E-01      12    1    1      -0.8885044417E+01      0.2122095486E+02      0.2235453206E-01     -0.1142088127E-01
          0                 2           4            12    1     2       0.9874284163E-03      12    1    1       0.8950233115E+00      0.2130607662E+01      0.2122095486E+02      0.9874284163E-03
          0                 3           3            12    1     2       0.4913665983E-04      12    1    1       0.4446508811E-01      0.1054468422E+00      0.2130607662E+01      0.4913665983E-04

    ------------------------------------------------
       NWT REQUIRED            3 OUTER ITERATIONS 
       AND A TOTAL OF         12 INNER ITERATIONS.
    ------------------------------------------------
                                                   Max.-Head-Change                        Max.-Flux-Residual
  Residual-Control   Outer-Iter.   Inner-Iter.     Column Row Layer    Max.-Head-Change    Column Row Layer    Max.-Flux-Residual            L2-New               L2-Old           Solver-Max-Delh
          0                 1           4            12    1     2      -0.4749600528E-02      12    1    1      -0.3421314908E+01      0.8709813598E+01      0.1054468422E+00     -0.4749600528E-02
          0                 2           3            12    1     2       0.4104796906E-03      12    1    1       0.3434989575E+00      0.8763981702E+00      0.8709813598E+01      0.4104796906E-03
          0                 3           2            12    1     2       0.2023921449E-04      12    1    1       0.2240983048E-01      0.4328623124E-01      0.8763981702E+00      0.2023921449E-04

    ------------------------------------------------
       NWT REQUIRED            3 OUTER ITERATIONS 
       AND A TOTAL OF          9 INNER ITERATIONS.
    ------------------------------------------------
                                                   Max.-Head-Change                        Max.-Flux-Residual
  Residual-Control   Outer-Iter.   Inner-Iter.     Column Row Layer    Max.-Head-Change    Column Row Layer    Max.-Flux-Residual            L2-New               L2-Old           Solver-Max-Delh
          0                 1           4            12    3     2      -0.1799587671E-02      12    3    1      -0.1321883467E+01      0.3281684874E+01      0.4328623124E-01     -0.1799587671E-02
          0                 2           3            12    3     2       0.1555783865E-03      12    3    1       0.1427085508E+00      0.3300352799E+00      0.3281684874E+01      0.1555783865E-03
          0                 3           2             9    3     1       0.9079204175E-05      10    3    1       0.8022837923E-02      0.2438516963E-01      0.3300352799E+00      0.9079204175E-05

    ------------------------------------------------
       NWT REQUIRED            3 OUTER ITERATIONS 
       AND A TOTAL OF          9 INNER ITERATIONS.
    ------------------------------------------------
                                                   Max.-Head-Change                        Max.-Flux-Residual
  Residual-Control   Outer-Iter.   Inner-Iter.     Column Row Layer    Max.-Head-Change    Column Row Layer    Max.-Flux-Residual            L2-New               L2-Old           Solver-Max-Delh
          0                 1           3            11    3     2      -0.6702686848E-03      12    3    1      -0.4617969692E+00      0.1099488319E+01      0.2438516963E-01     -0.6702686848E-03
          0                 2           3            11    3     2       0.5732806123E-04      12    3    1       0.4282260095E-01      0.1086198694E+00      0.1099488319E+01      0.5732806123E-04

    ------------------------------------------------
       NWT REQUIRED            2 OUTER ITERATIONS 
       AND A TOTAL OF          6 INNER ITERATIONS.
    ------------------------------------------------
                                                   Max.-Head-Change                        Max.-Flux-Residual
  Residual-Control   Outer-Iter.   Inner-Iter.     Column Row Layer    Max.-Head-Change    Column Row Layer    Max.-Flux-Residual            L2-New               L2-Old           Solver-Max-Delh
          0                 1           3            11    3     2      -0.2006576014E-03      12    3    1      -0.1308846199E+00      0.3540927752E+00      0.1086198694E+00     -0.2006576014E-03
          0                 2           2            11    3     2       0.1713998072E-04      12    3    1       0.1361314001E-01      0.3418664292E-01      0.3540927752E+00      0.1713998072E-04

    ------------------------------------------------
       NWT REQUIRED            2 OUTER ITERATIONS 
       AND A TOTAL OF          5 INNER ITERATIONS.
    ------------------------------------------------
          0                 1           3            12    1     1       0.8262340651E-04      12    1    1       0.8544287772E-01      0.1852852468E+00      0.3418664292E-01      0.8262340651E-04

    ------------------------------------------------
       NWT REQUIRED            1 OUTER ITERATIONS 
       AND A TOTAL OF          3 INNER ITERATIONS.
    ------------------------------------------------
          0                 1           3            12    1     1       0.7086465678E-04      12    1    1       0.6261523464E-01      0.1504531060E+00      0.1852852468E+00      0.7086465678E-04

    ------------------------------------------------
       NWT REQUIRED            1 OUTER ITERATIONS 
       AND A TOTAL OF          3 INNER ITERATIONS.
    ------------------------------------------------
          0                 1           3             1    3     1       0.5286480421E-04       1    3    1       0.4927119322E-01      0.1179815436E+00      0.1504531060E+00      0.5286480421E-04

    ------------------------------------------------
       NWT REQUIRED            1 OUTER ITERATIONS 
       AND A TOTAL OF          3 INNER ITERATIONS.
    ------------------------------------------------

 OUTPUT CONTROL FOR STRESS PERIOD      7   TIME STEP     1
    SAVE BUDGET
 UBDSV1 SAVING "         STORAGE" ON UNIT7012 AT TIME STEP    1, STRESS PERIOD   7
 UBDSV2 SAVING "   CONSTANT HEAD" ON UNIT7012 AT TIME STEP    1, STRESS PERIOD   7
 UBDSV1 SAVING "FLOW RIGHT FACE " ON UNIT7012 AT TIME STEP    1, STRESS PERIOD   7
 UBDSV1 SAVING "FLOW FRONT FACE " ON UNIT7012 AT TIME STEP    1, STRESS PERIOD   7
 UBDSV1 SAVING "FLOW LOWER FACE " ON UNIT7012 AT TIME STEP    1, STRESS PERIOD   7
 UBDSV4 SAVING " GHOST-NODE HEAD" ON UNIT7012 AT TIME STEP    1, STRESS PERIOD   7
1
  FLUX ACROSS PARENT-CHILD INTERFACE AT TIME STEP  1 IN STRESS PERIOD    7
  ------------------------------------------------------------------------
 G-N FLUX        PARENT        CHILD         DIFFERENCE      % DIFFERENCE
  RATE IN:      1.5239E+03    1.5238E+03     1.5381E-01        0.0101
 RATE OUT:      1.6896E+03    1.6899E+03    -2.3547E-01       -0.0139
 
 SOLVING FOR HEAD 
                                                   Max.-Head-Change                        Max.-Flux-Residual
  Residual-Control   Outer-Iter.   Inner-Iter.     Column Row Layer    Max.-Head-Change    Column Row Layer    Max.-Flux-Residual            L2-New               L2-Old           Solver-Max-Delh
          0                 1           6             1    3     1      -0.7063732197E-01       1    3    1      -0.5915257511E+02      0.1324498376E+03      0.1179815436E+00     -0.7063732197E-01
          0                 2           4             1    3     1       0.6072188869E-02       1    3    1       0.5883177866E+01      0.1322716372E+02      0.1324498376E+03      0.6072188869E-02
          0                 3           3             1    3     1       0.3048631976E-03       1    3    1       0.2963033686E+00      0.6614934926E+00      0.1322716372E+02      0.3048631976E-03
          0                 4           2             2    3     1       0.1588499594E-04       1    1    1       0.1520120818E-01      0.3808381169E-01      0.6614934926E+00      0.1588499594E-04

    ------------------------------------------------
       NWT REQUIRED            4 OUTER ITERATIONS 
       AND A TOTAL OF         15 INNER ITERATIONS.
    ------------------------------------------------
                                                   Max.-Head-Change                        Max.-Flux-Residual
  Residual-Control   Outer-Iter.   Inner-Iter.     Column Row Layer    Max.-Head-Change    Column Row Layer    Max.-Flux-Residual            L2-New               L2-Old           Solver-Max-Delh
          0                 1           5            12    1     2      -0.5133085349E-01      12    1    1      -0.4271938760E+02      0.9053326338E+02      0.3808381169E-01     -0.5133085349E-01
          0                 2           4            12    1     2       0.4435862209E-02      12    1    1       0.4294459182E+01      0.9070063222E+01      0.9053326338E+02      0.4435862209E-02
          0                 3           3            12    1     2       0.2219549358E-03      12    1    1       0.2178118591E+00      0.4536036502E+00      0.9070063222E+01      0.2219549358E-03
          0                 4           2            12    1     2       0.1074470234E-04      12    1    1       0.1147424761E-01      0.2980083010E-01      0.4536036502E+00      0.1074470234E-04

    ------------------------------------------------
       NWT REQUIRED            4 OUTER ITERATIONS 
       AND A TOTAL OF         14 INNER ITERATIONS.
    ------------------------------------------------
                                                   Max.-Head-Change                        Max.-Flux-Residual
  Residual-Control   Outer-Iter.   Inner-Iter.     Column Row Layer    Max.-Head-Change    Column Row Layer    Max.-Flux-Residual            L2-New               L2-Old           Solver-Max-Delh
          0                 1           5            12    1     2      -0.2551551656E-01      12    1    1      -0.2101025727E+02      0.4534175583E+02      0.2980083010E-01     -0.2551551656E-01
          0                 2           4            12    1     2       0.2204891607E-02      12    1    1       0.2106930168E+01      0.4541656895E+01      0.4534175583E+02      0.2204891607E-02
          0                 3           3            12    1     2       0.1098658467E-03      12    1    1       0.1078551127E+00      0.2227423157E+00      0.4541656895E+01      0.1098658467E-03
          0                 4           2            12    3     1       0.1092390170E-04      12    3    1       0.1179473687E-01      0.2569227514E-01      0.2227423157E+00      0.1092390170E-04

    ------------------------------------------------
       NWT REQUIRED            4 OUTER ITERATIONS 
       AND A TOTAL OF         14 INNER ITERATIONS.
    ------------------------------------------------
                                                   Max.-Head-Change                        Max.-Flux-Residual
  Residual-Control   Outer-Iter.   Inner-Iter.     Column Row Layer    Max.-Head-Change    Column Row Layer    Max.-Flux-Residual            L2-New               L2-Old           Solver-Max-Delh
          0                 1           5            12    1     2      -0.1190623232E-01      12    1    1      -0.9499584644E+01      0.2154095413E+02      0.2569227514E-01     -0.1190623232E-01
          0                 2           4            12    1     2       0.1029581287E-02      12    1    1       0.9633770864E+00      0.2163187905E+01      0.2154095413E+02      0.1029581287E-02
          0                 3           3            12    1     2       0.5090748091E-04      12    1    1       0.4148550617E-01      0.1031697659E+00      0.2163187905E+01      0.5090748091E-04

    ------------------------------------------------
       NWT REQUIRED            3 OUTER ITERATIONS 
       AND A TOTAL OF         12 INNER ITERATIONS.
    ------------------------------------------------
                                                   Max.-Head-Change                        Max.-Flux-Residual
  Residual-Control   Outer-Iter.   Inner-Iter.     Column Row Layer    Max.-Head-Change    Column Row Layer    Max.-Flux-Residual            L2-New               L2-Old           Solver-Max-Delh
          0                 1           4            12    1     2      -0.5171188044E-02      12    1    1      -0.3907240284E+01      0.9693989767E+01      0.1031697659E+00     -0.5171188044E-02
          0                 2           3            12    1     2       0.4467770383E-03      12    1    1       0.4012414972E+00      0.9750011167E+00      0.9693989767E+01      0.4467770383E-03
          0                 3           2            12    1     1       0.2388968418E-04      12    1    1       0.2374386095E-01      0.5199275326E-01      0.9750011167E+00      0.2388968418E-04

    ------------------------------------------------
       NWT REQUIRED            3 OUTER ITERATIONS 
       AND A TOTAL OF          9 INNER ITERATIONS.
    ------------------------------------------------
                                                   Max.-Head-Change                        Max.-Flux-Residual
  Residual-Control   Outer-Iter.   Inner-Iter.     Column Row Layer    Max.-Head-Change    Column Row Layer    Max.-Flux-Residual            L2-New               L2-Old           Solver-Max-Delh
          0                 1           4            12    3     2      -0.2088466692E-02      12    3    1      -0.1482922817E+01      0.4132464240E+01      0.5199275326E-01     -0.2088466692E-02
          0                 2           3            12    3     2       0.1805785876E-03      12    3    1       0.1532006411E+00      0.4182190787E+00      0.4132464240E+01      0.1805785876E-03
          0                 3           2             1    3     1       0.9512533284E-05       1    3    1       0.1304642245E-01      0.2985684553E-01      0.4182190787E+00      0.9512533284E-05

    ------------------------------------------------
       NWT REQUIRED            3 OUTER ITERATIONS 
       AND A TOTAL OF          9 INNER ITERATIONS.
    ------------------------------------------------
                                                   Max.-Head-Change                        Max.-Flux-Residual
  Residual-Control   Outer-Iter.   Inner-Iter.     Column Row Layer    Max.-Head-Change    Column Row Layer    Max.-Flux-Residual            L2-New               L2-Old           Solver-Max-Delh
          0                 1           4            11    3     2      -0.8600859360E-03      12    3    1      -0.6364024119E+00      0.1673261041E+01      0.2985684553E-01     -0.8600859360E-03
          0                 2           3            11    3     2       0.7463250881E-04      12    3    1       0.6141674865E-01      0.1712877977E+00      0.1673261041E+01      0.7463250881E-04

    ------------------------------------------------
       NWT REQUIRED            2 OUTER ITERATIONS 
       AND A TOTAL OF          7 INNER ITERATIONS.
    ------------------------------------------------
                                                   Max.-Head-Change                        Max.-Flux-Residual
  Residual-Control   Outer-Iter.   Inner-Iter.     Column Row Layer    Max.-Head-Change    Column Row Layer    Max.-Flux-Residual            L2-New               L2-Old           Solver-Max-Delh
          0                 1           3            11    3     2      -0.3079094139E-03      12    3    1      -0.2207165058E+00      0.6011983088E+00      0.1712877977E+00     -0.3079094139E-03
          0                 2           2            11    3     2       0.2601989335E-04      11    3    1       0.2004751778E-01      0.5557930399E-01      0.6011983088E+00      0.2601989335E-04

    ------------------------------------------------
       NWT REQUIRED            2 OUTER ITERATIONS 
       AND A TOTAL OF          5 INNER ITERATIONS.
    ------------------------------------------------
          0                 1           3             7    3     1      -0.9245294759E-04       7    3    1      -0.6600824598E-01      0.1933843092E+00      0.5557930399E-01     -0.9245294759E-04

    ------------------------------------------------
       NWT REQUIRED            1 OUTER ITERATIONS 
       AND A TOTAL OF          3 INNER ITERATIONS.
    ------------------------------------------------
          0                 1           2            11    1     1       0.3406931215E-04      12    1    1       0.3222265700E-01      0.5811912097E-01      0.1933843092E+00      0.3406931215E-04

    ------------------------------------------------
       NWT REQUIRED            1 OUTER ITERATIONS 
       AND A TOTAL OF          2 INNER ITERATIONS.
    ------------------------------------------------
          0                 1           2             8    3     3       0.4039177867E-04      12    1    1       0.3525769792E-01      0.6716547132E-01      0.5811912097E-01      0.4039177867E-04

    ------------------------------------------------
       NWT REQUIRED            1 OUTER ITERATIONS 
       AND A TOTAL OF          2 INNER ITERATIONS.
    ------------------------------------------------

 OUTPUT CONTROL FOR STRESS PERIOD      7   TIME STEP     2
    SAVE BUDGET
 UBDSV1 SAVING "         STORAGE" ON UNIT7012 AT TIME STEP    2, STRESS PERIOD   7
 UBDSV2 SAVING "   CONSTANT HEAD" ON UNIT7012 AT TIME STEP    2, STRESS PERIOD   7
 UBDSV1 SAVING "FLOW RIGHT FACE " ON UNIT7012 AT TIME STEP    2, STRESS PERIOD   7
 UBDSV1 SAVING "FLOW FRONT FACE " ON UNIT7012 AT TIME STEP    2, STRESS PERIOD   7
 UBDSV1 SAVING "FLOW LOWER FACE " ON UNIT7012 AT TIME STEP    2, STRESS PERIOD   7
 UBDSV4 SAVING " GHOST-NODE HEAD" ON UNIT7012 AT TIME STEP    2, STRESS PERIOD   7
1
  VOLUMETRIC BUDGET FOR ENTIRE MODEL AT END OF TIME STEP    2 IN STRESS PERIOD      7
  ------------------------------------------------------------------------------

     CUMULATIVE VOLUMES      L**3       RATES FOR THIS TIME STEP      L**3/T
     ------------------                 ------------------------

           IN:                                      IN:
           ---                                      ---
             STORAGE =       12926.1924               STORAGE =         152.5222
       CONSTANT HEAD =           0.0000         CONSTANT HEAD =           0.0000
     GHOST-NODE HEAD =     1851083.5000       GHOST-NODE HEAD =        1542.1228

            TOTAL IN =     1864009.7500              TOTAL IN =        1694.6450

          OUT:                                     OUT:
          ----                                     ----
             STORAGE =     1608553.7500               STORAGE =           0.0000
       CONSTANT HEAD =           0.0000         CONSTANT HEAD =           0.0000
     GHOST-NODE HEAD =      255453.7344       GHOST-NODE HEAD =        1694.6565

           TOTAL OUT =     1864007.5000             TOTAL OUT =        1694.6565

            IN - OUT =           2.2500              IN - OUT =      -1.1475E-02

 PERCENT DISCREPANCY =           0.00     PERCENT DISCREPANCY =          -0.00






          TIME SUMMARY AT END OF TIME STEP     2 IN STRESS PERIOD      7
                    SECONDS     MINUTES      HOURS       DAYS        YEARS
                    -----------------------------------------------------------
   TIME STEP LENGTH 1.31414E+06  21902.      365.04      15.210     4.16427E-02
 STRESS PERIOD TIME 2.62829E+06  43805.      730.08      30.420     8.32854E-02
         TOTAL TIME 1.83980E+07 3.06634E+05  5110.6      212.94     0.58300    
1
1
  FLUX ACROSS PARENT-CHILD INTERFACE AT TIME STEP  2 IN STRESS PERIOD    7
  ------------------------------------------------------------------------
 G-N FLUX        PARENT        CHILD         DIFFERENCE      % DIFFERENCE
  RATE IN:      1.5423E+03    1.5421E+03     2.1582E-01        0.0140
 RATE OUT:      1.6944E+03    1.6947E+03    -2.1521E-01       -0.0127
1
                            STRESS PERIOD NO.      8, LENGTH =   30.42000    
                            -----------------------------------------------

                              NUMBER OF TIME STEPS =     2

                               MULTIPLIER FOR DELT =     1.000

                            INITIAL TIME STEP SIZE =   15.21000    
 
 SOLVING FOR HEAD 
                                                   Max.-Head-Change                        Max.-Flux-Residual
  Residual-Control   Outer-Iter.   Inner-Iter.     Column Row Layer    Max.-Head-Change    Column Row Layer    Max.-Flux-Residual            L2-New               L2-Old           Solver-Max-Delh
          0                 1           6            12    3     4      -0.7023707201E-01       1    3    1      -0.5566674945E+02      0.1409505215E+03      0.6716547132E-01     -0.7023707201E-01
          0                 2           5            12    3     4       0.6065637522E-02       1    3    1       0.5533721591E+01      0.1408537848E+02      0.1409505215E+03      0.6065637522E-02
          0                 3           3            12    3     4       0.3031898631E-03       1    3    1       0.2857652063E+00      0.7070856347E+00      0.1408537848E+02      0.3031898631E-03
          0                 4           2             2    3     1       0.1770259535E-04      12    3    1       0.1837576038E-01      0.4050994022E-01      0.7070856347E+00      0.1770259535E-04

    ------------------------------------------------
       NWT REQUIRED            4 OUTER ITERATIONS 
       AND A TOTAL OF         16 INNER ITERATIONS.
    ------------------------------------------------
                                                   Max.-Head-Change                        Max.-Flux-Residual
  Residual-Control   Outer-Iter.   Inner-Iter.     Column Row Layer    Max.-Head-Change    Column Row Layer    Max.-Flux-Residual            L2-New               L2-Old           Solver-Max-Delh
          0                 1           5            12    1     1      -0.5325164730E-01      12    1    1      -0.4413105624E+02      0.1021821651E+03      0.4050994022E-01     -0.5325164730E-01
          0                 2           4            12    1     1       0.4633933668E-02      12    1    1       0.4446429809E+01      0.1023509780E+02      0.1021821651E+03      0.4633933668E-02
          0                 3           3            12    1     1       0.2296501753E-03      12    1    1       0.2216133223E+00      0.5125613505E+00      0.1023509780E+02      0.2296501753E-03
          0                 4           2            11    1     1       0.1325554620E-04      12    3    1       0.1116605278E-01      0.3076622185E-01      0.5125613505E+00      0.1325554620E-04

    ------------------------------------------------
       NWT REQUIRED            4 OUTER ITERATIONS 
       AND A TOTAL OF         14 INNER ITERATIONS.
    ------------------------------------------------
                                                   Max.-Head-Change                        Max.-Flux-Residual
  Residual-Control   Outer-Iter.   Inner-Iter.     Column Row Layer    Max.-Head-Change    Column Row Layer    Max.-Flux-Residual            L2-New               L2-Old           Solver-Max-Delh
          0                 1           5            12    1     1      -0.2628938243E-01      12    1    1      -0.2175486140E+02      0.5046365023E+02      0.3076622185E-01     -0.2628938243E-01
          0                 2           4            12    1     1       0.2282735377E-02      12    1    1       0.2187348153E+01      0.5056576011E+01      0.5046365023E+02      0.2282735377E-02
          0                 3           3            12    1     1       0.1149574112E-03      12    1    1       0.1104025823E+00      0.2516355987E+00      0.5056576011E+01      0.1149574112E-03
          0                 4           2             7    1     1       0.6767282569E-05       7    1    1       0.7749477518E-02      0.1808766640E-01      0.2516355987E+00      0.6767282569E-05

    ------------------------------------------------
       NWT REQUIRED            4 OUTER ITERATIONS 
       AND A TOTAL OF         14 INNER ITERATIONS.
    ------------------------------------------------
                                                   Max.-Head-Change                        Max.-Flux-Residual
  Residual-Control   Outer-Iter.   Inner-Iter.     Column Row Layer    Max.-Head-Change    Column Row Layer    Max.-Flux-Residual            L2-New               L2-Old           Solver-Max-Delh
          0                 1           5            12    1     1      -0.1204841054E-01      12    1    1      -0.9856858870E+01      0.2336584253E+02      0.1808766640E-01     -0.1204841054E-01
          0                 2           4            12    1     1       0.1049929604E-02      12    1    1       0.9954460866E+00      0.2340074972E+01      0.2336584253E+02      0.1049929604E-02
          0                 3           3            11    1     1       0.5349863814E-04      12    1    1       0.4873159586E-01      0.1187930066E+00      0.2340074972E+01      0.5349863814E-04

    ------------------------------------------------
       NWT REQUIRED            3 OUTER ITERATIONS 
       AND A TOTAL OF         12 INNER ITERATIONS.
    ------------------------------------------------
                                                   Max.-Head-Change                        Max.-Flux-Residual
  Residual-Control   Outer-Iter.   Inner-Iter.     Column Row Layer    Max.-Head-Change    Column Row Layer    Max.-Flux-Residual            L2-New               L2-Old           Solver-Max-Delh
          0                 1           4            12    1     2      -0.5169441729E-02      12    1    1      -0.4068534986E+01      0.1015738242E+02      0.1187930066E+00     -0.5169441729E-02
          0                 2           3            12    1     2       0.4458992626E-03      12    1    1       0.4065167033E+00      0.1014666257E+01      0.1015738242E+02      0.4458992626E-03
          0                 3           2            12    1     1       0.2460786473E-04      12    1    1       0.2246368676E-01      0.5434549844E-01      0.1014666257E+01      0.2460786473E-04

    ------------------------------------------------
       NWT REQUIRED            3 OUTER ITERATIONS 
       AND A TOTAL OF          9 INNER ITERATIONS.
    ------------------------------------------------
                                                   Max.-Head-Change                        Max.-Flux-Residual
  Residual-Control   Outer-Iter.   Inner-Iter.     Column Row Layer    Max.-Head-Change    Column Row Layer    Max.-Flux-Residual            L2-New               L2-Old           Solver-Max-Delh
          0                 1           4            12    3     2      -0.2162781224E-02      12    3    1      -0.1636590454E+01      0.4160780972E+01      0.5434549844E-01     -0.2162781224E-02
          0                 2           3            12    3     2       0.1867075498E-03      12    3    1       0.1614424895E+00      0.4156874404E+00      0.4160780972E+01      0.1867075498E-03
          0                 3           2             9    3     1       0.1126894100E-04       8    3    1       0.7197536121E-02      0.2762828505E-01      0.4156874404E+00      0.1126894100E-04

    ------------------------------------------------
       NWT REQUIRED            3 OUTER ITERATIONS 
       AND A TOTAL OF          9 INNER ITERATIONS.
    ------------------------------------------------
                                                   Max.-Head-Change                        Max.-Flux-Residual
  Residual-Control   Outer-Iter.   Inner-Iter.     Column Row Layer    Max.-Head-Change    Column Row Layer    Max.-Flux-Residual            L2-New               L2-Old           Solver-Max-Delh
          0                 1           4            12    3     2      -0.8867182909E-03      12    3    1      -0.7092620972E+00      0.1605824188E+01      0.2762828505E-01     -0.8867182909E-03
          0                 2           3            12    3     2       0.7624745046E-04      12    3    1       0.6561357484E-01      0.1609026207E+00      0.1605824188E+01      0.7624745046E-04

    ------------------------------------------------
       NWT REQUIRED            2 OUTER ITERATIONS 
       AND A TOTAL OF          7 INNER ITERATIONS.
    ------------------------------------------------
                                                   Max.-Head-Change                        Max.-Flux-Residual
  Residual-Control   Outer-Iter.   Inner-Iter.     Column Row Layer    Max.-Head-Change    Column Row Layer    Max.-Flux-Residual            L2-New               L2-Old           Solver-Max-Delh
          0                 1           3            12    3     2      -0.3093180479E-03      12    3    1      -0.2553357260E+00      0.5449122137E+00      0.1609026207E+00     -0.3093180479E-03
          0                 2           2            12    3     2       0.2626427055E-04      12    3    1       0.2019819786E-01      0.5299444311E-01      0.5449122137E+00      0.2626427055E-04

    ------------------------------------------------
       NWT REQUIRED            2 OUTER ITERATIONS 
       AND A TOTAL OF          5 INNER ITERATIONS.
    ------------------------------------------------
          0                 1           2             1    3     3      -0.8462396558E-04      11    3    1      -0.4958241072E-01      0.1505154510E+00      0.5299444311E-01     -0.8462396558E-04

    ------------------------------------------------
       NWT REQUIRED            1 OUTER ITERATIONS 
       AND A TOTAL OF          2 INNER ITERATIONS.
    ------------------------------------------------
          0                 1           2            12    1     1       0.4158521203E-04      12    1    1       0.4593299166E-01      0.7033719140E-01      0.1505154510E+00      0.4158521203E-04

    ------------------------------------------------
       NWT REQUIRED            1 OUTER ITERATIONS 
       AND A TOTAL OF          2 INNER ITERATIONS.
    ------------------------------------------------
          0                 1           2            10    1     1       0.4593567678E-04      12    1    1       0.3125603823E-01      0.8243785510E-01      0.7033719140E-01      0.4593567678E-04

    ------------------------------------------------
       NWT REQUIRED            1 OUTER ITERATIONS 
       AND A TOTAL OF          2 INNER ITERATIONS.
    ------------------------------------------------

 OUTPUT CONTROL FOR STRESS PERIOD      8   TIME STEP     1
    SAVE BUDGET
 UBDSV1 SAVING "         STORAGE" ON UNIT7012 AT TIME STEP    1, STRESS PERIOD   8
 UBDSV2 SAVING "   CONSTANT HEAD" ON UNIT7012 AT TIME STEP    1, STRESS PERIOD   8
 UBDSV1 SAVING "FLOW RIGHT FACE " ON UNIT7012 AT TIME STEP    1, STRESS PERIOD   8
 UBDSV1 SAVING "FLOW FRONT FACE " ON UNIT7012 AT TIME STEP    1, STRESS PERIOD   8
 UBDSV1 SAVING "FLOW LOWER FACE " ON UNIT7012 AT TIME STEP    1, STRESS PERIOD   8
 UBDSV4 SAVING " GHOST-NODE HEAD" ON UNIT7012 AT TIME STEP    1, STRESS PERIOD   8
1
  FLUX ACROSS PARENT-CHILD INTERFACE AT TIME STEP  1 IN STRESS PERIOD    8
  ------------------------------------------------------------------------
 G-N FLUX        PARENT        CHILD         DIFFERENCE      % DIFFERENCE
  RATE IN:      1.5432E+03    1.5430E+03     2.0190E-01        0.0131
 RATE OUT:      1.7150E+03    1.7153E+03    -2.2266E-01       -0.0130
 
 SOLVING FOR HEAD 
                                                   Max.-Head-Change                        Max.-Flux-Residual
  Residual-Control   Outer-Iter.   Inner-Iter.     Column Row Layer    Max.-Head-Change    Column Row Layer    Max.-Flux-Residual            L2-New               L2-Old           Solver-Max-Delh
          0                 1           5            11    3     4      -0.7034194323E-01       1    3    1      -0.4709387641E+02      0.1201058174E+03      0.8243785510E-01     -0.7034194323E-01
          0                 2           4            11    3     4       0.6071758965E-02       1    3    1       0.4689195043E+01      0.1200108087E+02      0.1201058174E+03      0.6071758965E-02
          0                 3           3            11    3     4       0.3047140618E-03       1    3    1       0.2415189794E+00      0.6036882931E+00      0.1200108087E+02      0.3047140618E-03
          0                 4           2            11    3     4       0.1547821638E-04       2    3    1       0.1227582950E-01      0.3010822172E-01      0.6036882931E+00      0.1547821638E-04

    ------------------------------------------------
       NWT REQUIRED            4 OUTER ITERATIONS 
       AND A TOTAL OF         14 INNER ITERATIONS.
    ------------------------------------------------
                                                   Max.-Head-Change                        Max.-Flux-Residual
  Residual-Control   Outer-Iter.   Inner-Iter.     Column Row Layer    Max.-Head-Change    Column Row Layer    Max.-Flux-Residual            L2-New               L2-Old           Solver-Max-Delh
          0                 1           5            12    1     1      -0.5075459932E-01      12    1    1      -0.4227978533E+02      0.9610688334E+02      0.3010822172E-01     -0.5075459932E-01
          0                 2           4            12    1     1       0.4415121505E-02      12    1    1       0.4258325681E+01      0.9625420646E+01      0.9610688334E+02      0.4415121505E-02
          0                 3           3            12    1     2       0.2185002215E-03      12    1    1       0.2119474565E+00      0.4777270971E+00      0.9625420646E+01      0.2185002215E-03
          0                 4           2            10    1     1       0.1258443279E-04      12    3    1       0.1159445324E-01      0.3017706216E-01      0.4777270971E+00      0.1258443279E-04

    ------------------------------------------------
       NWT REQUIRED            4 OUTER ITERATIONS 
       AND A TOTAL OF         14 INNER ITERATIONS.
    ------------------------------------------------
                                                   Max.-Head-Change                        Max.-Flux-Residual
  Residual-Control   Outer-Iter.   Inner-Iter.     Column Row Layer    Max.-Head-Change    Column Row Layer    Max.-Flux-Residual            L2-New               L2-Old           Solver-Max-Delh
          0                 1           5            12    1     1      -0.2539152211E-01      12    1    1      -0.2107081940E+02      0.4847173961E+02      0.3017706216E-01     -0.2539152211E-01
          0                 2           4            12    1     1       0.2205815105E-02      12    1    1       0.2121635076E+01      0.4852558248E+01      0.4847173961E+02      0.2205815105E-02
          0                 3           3            12    1     1       0.1099670849E-03      12    1    1       0.1057312033E+00      0.2468714177E+00      0.4852558248E+01      0.1099670849E-03
          0                 4           2            12    1     1       0.1128127556E-04      12    1    1       0.1345494512E-01      0.2471316700E-01      0.2468714177E+00      0.1128127556E-04

    ------------------------------------------------
       NWT REQUIRED            4 OUTER ITERATIONS 
       AND A TOTAL OF         14 INNER ITERATIONS.
    ------------------------------------------------
                                                   Max.-Head-Change                        Max.-Flux-Residual
  Residual-Control   Outer-Iter.   Inner-Iter.     Column Row Layer    Max.-Head-Change    Column Row Layer    Max.-Flux-Residual            L2-New               L2-Old           Solver-Max-Delh
          0                 1           5            12    1     2      -0.1178500323E-01      12    1    1      -0.9618491522E+01      0.2280328703E+02      0.2471316700E-01     -0.1178500323E-01
          0                 2           4            12    1     1       0.1024801570E-02      12    1    1       0.9718804078E+00      0.2283500263E+01      0.2280328703E+02      0.1024801570E-02
          0                 3           3            11    1     1       0.5384176337E-04      12    1    1       0.5032610660E-01      0.1177373429E+00      0.2283500263E+01      0.5384176337E-04

    ------------------------------------------------
       NWT REQUIRED            3 OUTER ITERATIONS 
       AND A TOTAL OF         12 INNER ITERATIONS.
    ------------------------------------------------
                                                   Max.-Head-Change                        Max.-Flux-Residual
  Residual-Control   Outer-Iter.   Inner-Iter.     Column Row Layer    Max.-Head-Change    Column Row Layer    Max.-Flux-Residual            L2-New               L2-Old           Solver-Max-Delh
          0                 1           4            12    1     2      -0.5073721203E-02      12    1    1      -0.3982611877E+01      0.1007647240E+02      0.1177373429E+00     -0.5073721203E-02
          0                 2           3            12    1     2       0.4379800283E-03      12    1    1       0.3985424080E+00      0.1009501800E+01      0.1007647240E+02      0.4379800283E-03
          0                 3           2            12    1     1       0.2407459980E-04      12    1    1       0.2383309626E-01      0.5257338974E-01      0.1009501800E+01      0.2407459980E-04

    ------------------------------------------------
       NWT REQUIRED            3 OUTER ITERATIONS 
       AND A TOTAL OF          9 INNER ITERATIONS.
    ------------------------------------------------
                                                   Max.-Head-Change                        Max.-Flux-Residual
  Residual-Control   Outer-Iter.   Inner-Iter.     Column Row Layer    Max.-Head-Change    Column Row Layer    Max.-Flux-Residual            L2-New               L2-Old           Solver-Max-Delh
          0                 1           4            12    3     2      -0.2210979110E-02      12    3    1      -0.1660682834E+01      0.4255724653E+01      0.5257338974E-01     -0.2210979110E-02
          0                 2           3            12    3     2       0.1908542739E-03      12    3    1       0.1649090367E+00      0.4272018850E+00      0.4255724653E+01      0.1908542739E-03
          0                 3           2            12    3     2       0.9403039468E-05       1    1    1       0.1037337887E-01      0.2621744805E-01      0.4272018850E+00      0.9403039468E-05

    ------------------------------------------------
       NWT REQUIRED            3 OUTER ITERATIONS 
       AND A TOTAL OF          9 INNER ITERATIONS.
    ------------------------------------------------
                                                   Max.-Head-Change                        Max.-Flux-Residual
  Residual-Control   Outer-Iter.   Inner-Iter.     Column Row Layer    Max.-Head-Change    Column Row Layer    Max.-Flux-Residual            L2-New               L2-Old           Solver-Max-Delh
          0                 1           4            12    3     2      -0.9224238950E-03      12    3    1      -0.7482215833E+00      0.1721647592E+01      0.2621744805E-01     -0.9224238950E-03
          0                 2           3            12    3     2       0.8002865391E-04      12    3    1       0.7872735820E-01      0.1783021431E+00      0.1721647592E+01      0.8002865391E-04

    ------------------------------------------------
       NWT REQUIRED            2 OUTER ITERATIONS 
       AND A TOTAL OF          7 INNER ITERATIONS.
    ------------------------------------------------
                                                   Max.-Head-Change                        Max.-Flux-Residual
  Residual-Control   Outer-Iter.   Inner-Iter.     Column Row Layer    Max.-Head-Change    Column Row Layer    Max.-Flux-Residual            L2-New               L2-Old           Solver-Max-Delh
          0                 1           3            12    3     2      -0.3329931450E-03      12    3    1      -0.2790874714E+00      0.6290780519E+00      0.1783021431E+00     -0.3329931450E-03
          0                 2           2            12    3     2       0.2829896565E-04       1    3    1       0.2057578671E-01      0.5888315629E-01      0.6290780519E+00      0.2829896565E-04

    ------------------------------------------------
       NWT REQUIRED            2 OUTER ITERATIONS 
       AND A TOTAL OF          5 INNER ITERATIONS.
    ------------------------------------------------
          0                 1           3             1    3     2      -0.8780651249E-04      12    3    1      -0.9544694889E-01      0.2045453802E+00      0.5888315629E-01     -0.8780651249E-04

    ------------------------------------------------
       NWT REQUIRED            1 OUTER ITERATIONS 
       AND A TOTAL OF          3 INNER ITERATIONS.
    ------------------------------------------------
          0                 1           2             7    1     1       0.3919833068E-04      12    1    1       0.3443106188E-01      0.8266006627E-01      0.2045453802E+00      0.3919833068E-04

    ------------------------------------------------
       NWT REQUIRED            1 OUTER ITERATIONS 
       AND A TOTAL OF          2 INNER ITERATIONS.
    ------------------------------------------------
          0                 1           2             7    3     1       0.4383782351E-04       7    3    1       0.3042569390E-01      0.7878786410E-01      0.8266006627E-01      0.4383782351E-04

    ------------------------------------------------
       NWT REQUIRED            1 OUTER ITERATIONS 
       AND A TOTAL OF          2 INNER ITERATIONS.
    ------------------------------------------------

 OUTPUT CONTROL FOR STRESS PERIOD      8   TIME STEP     2
    SAVE BUDGET
 UBDSV1 SAVING "         STORAGE" ON UNIT7012 AT TIME STEP    2, STRESS PERIOD   8
 UBDSV2 SAVING "   CONSTANT HEAD" ON UNIT7012 AT TIME STEP    2, STRESS PERIOD   8
 UBDSV1 SAVING "FLOW RIGHT FACE " ON UNIT7012 AT TIME STEP    2, STRESS PERIOD   8
 UBDSV1 SAVING "FLOW FRONT FACE " ON UNIT7012 AT TIME STEP    2, STRESS PERIOD   8
 UBDSV1 SAVING "FLOW LOWER FACE " ON UNIT7012 AT TIME STEP    2, STRESS PERIOD   8
 UBDSV4 SAVING " GHOST-NODE HEAD" ON UNIT7012 AT TIME STEP    2, STRESS PERIOD   8
1
  VOLUMETRIC BUDGET FOR ENTIRE MODEL AT END OF TIME STEP    2 IN STRESS PERIOD      8
  ------------------------------------------------------------------------------

     CUMULATIVE VOLUMES      L**3       RATES FOR THIS TIME STEP      L**3/T
     ------------------                 ------------------------

           IN:                                      IN:
           ---                                      ---
             STORAGE =       17894.1016               STORAGE =         154.3922
       CONSTANT HEAD =           0.0000         CONSTANT HEAD =           0.0000
     GHOST-NODE HEAD =     1898439.0000       GHOST-NODE HEAD =        1570.4382

            TOTAL IN =     1916333.1250              TOTAL IN =        1724.8304

          OUT:                                     OUT:
          ----                                     ----
             STORAGE =     1608553.7500               STORAGE =           0.0000
       CONSTANT HEAD =           0.0000         CONSTANT HEAD =           0.0000
     GHOST-NODE HEAD =      307778.2812       GHOST-NODE HEAD =        1724.8755

           TOTAL OUT =     1916332.0000             TOTAL OUT =        1724.8755

            IN - OUT =           1.1250              IN - OUT =      -4.5044E-02

 PERCENT DISCREPANCY =           0.00     PERCENT DISCREPANCY =          -0.00






          TIME SUMMARY AT END OF TIME STEP     2 IN STRESS PERIOD      8
                    SECONDS     MINUTES      HOURS       DAYS        YEARS
                    -----------------------------------------------------------
   TIME STEP LENGTH 1.31414E+06  21902.      365.04      15.210     4.16427E-02
 STRESS PERIOD TIME 2.62829E+06  43805.      730.08      30.420     8.32854E-02
         TOTAL TIME 2.10263E+07 3.50438E+05  5840.6      243.36     0.66628    
1
1
  FLUX ACROSS PARENT-CHILD INTERFACE AT TIME STEP  2 IN STRESS PERIOD    8
  ------------------------------------------------------------------------
 G-N FLUX        PARENT        CHILD         DIFFERENCE      % DIFFERENCE
  RATE IN:      1.5706E+03    1.5704E+03     1.9446E-01        0.0124
 RATE OUT:      1.7246E+03    1.7249E+03    -2.2937E-01       -0.0133
1
                            STRESS PERIOD NO.      9, LENGTH =   30.42000    
                            -----------------------------------------------

                              NUMBER OF TIME STEPS =     2

                               MULTIPLIER FOR DELT =     1.000

                            INITIAL TIME STEP SIZE =   15.21000    
 
 SOLVING FOR HEAD 
                                                   Max.-Head-Change                        Max.-Flux-Residual
  Residual-Control   Outer-Iter.   Inner-Iter.     Column Row Layer    Max.-Head-Change    Column Row Layer    Max.-Flux-Residual            L2-New               L2-Old           Solver-Max-Delh
          0                 1           6             4    3     1      -0.7954015118E-01       1    3    1      -0.5850358178E+02      0.1480793552E+03      0.7878786410E-01     -0.7954015118E-01
          0                 2           5             4    3     1       0.6862687492E-02       1    3    1       0.5828998790E+01      0.1476583355E+02      0.1480793552E+03      0.6862687492E-02
          0                 3           3             3    3     1       0.3453815029E-03       1    3    1       0.2900555398E+00      0.7414085017E+00      0.1476583355E+02      0.3453815029E-03
          0                 4           2             1    3     1       0.1913500200E-04       1    3    1       0.2189464396E-01      0.4082324607E-01      0.7414085017E+00      0.1913500200E-04

    ------------------------------------------------
       NWT REQUIRED            4 OUTER ITERATIONS 
       AND A TOTAL OF         16 INNER ITERATIONS.
    ------------------------------------------------
                                                   Max.-Head-Change                        Max.-Flux-Residual
  Residual-Control   Outer-Iter.   Inner-Iter.     Column Row Layer    Max.-Head-Change    Column Row Layer    Max.-Flux-Residual            L2-New               L2-Old           Solver-Max-Delh
          0                 1           5             7    1     1      -0.5316438041E-01       1    1    1      -0.3346320025E+02      0.1046380339E+03      0.4082324607E-01     -0.5316438041E-01
          0                 2           4             7    1     1       0.4584456811E-02       1    1    1       0.3335561767E+01      0.1044273982E+02      0.1046380339E+03      0.4584456811E-02
          0                 3           3             7    1     1       0.2290582865E-03       1    1    1       0.1619385054E+00      0.5198740577E+00      0.1044273982E+02      0.2290582865E-03
          0                 4           2             5    1     1       0.1432483627E-04      12    1    1       0.1333457179E-01      0.3308176619E-01      0.5198740577E+00      0.1432483627E-04

    ------------------------------------------------
       NWT REQUIRED            4 OUTER ITERATIONS 
       AND A TOTAL OF         14 INNER ITERATIONS.
    ------------------------------------------------
                                                   Max.-Head-Change                        Max.-Flux-Residual
  Residual-Control   Outer-Iter.   Inner-Iter.     Column Row Layer    Max.-Head-Change    Column Row Layer    Max.-Flux-Residual            L2-New               L2-Old           Solver-Max-Delh
          0                 1           5             7    1     1      -0.2512382058E-01       1    1    1      -0.1661866163E+02      0.5055681291E+02      0.3308176619E-01     -0.2512382058E-01
          0                 2           4             7    1     1       0.2167428728E-02       1    1    1       0.1649991378E+01      0.5050501842E+01      0.5055681291E+02      0.2167428728E-02
          0                 3           3             7    1     1       0.1093950567E-03       1    1    1       0.8934332582E-01      0.2533163565E+00      0.5050501842E+01      0.1093950567E-03
          0                 4           2            11    3     1       0.1017251979E-04      10    1    1       0.7750284742E-02      0.2374992435E-01      0.2533163565E+00      0.1017251979E-04

    ------------------------------------------------
       NWT REQUIRED            4 OUTER ITERATIONS 
       AND A TOTAL OF         14 INNER ITERATIONS.
    ------------------------------------------------
                                                   Max.-Head-Change                        Max.-Flux-Residual
  Residual-Control   Outer-Iter.   Inner-Iter.     Column Row Layer    Max.-Head-Change    Column Row Layer    Max.-Flux-Residual            L2-New               L2-Old           Solver-Max-Delh
          0                 1           5             8    1     1      -0.1052383391E-01       1    1    1      -0.7638476134E+01      0.2272148759E+02      0.2374992435E-01     -0.1052383391E-01
          0                 2           4             8    1     1       0.9070321760E-03       1    1    1       0.7570980631E+00      0.2268257728E+01      0.2272148759E+02      0.9070321760E-03
          0                 3           3             7    1     1       0.4515337408E-04       1    1    1       0.4030738876E-01      0.1153402443E+00      0.2268257728E+01      0.4515337408E-04

    ------------------------------------------------
       NWT REQUIRED            3 OUTER ITERATIONS 
       AND A TOTAL OF         12 INNER ITERATIONS.
    ------------------------------------------------
                                                   Max.-Head-Change                        Max.-Flux-Residual
  Residual-Control   Outer-Iter.   Inner-Iter.     Column Row Layer    Max.-Head-Change    Column Row Layer    Max.-Flux-Residual            L2-New               L2-Old           Solver-Max-Delh
          0                 1           4            12    2     2      -0.4384909064E-02      12    1    1      -0.3519973837E+01      0.9678296187E+01      0.1153402443E+00     -0.4384909064E-02
          0                 2           3            12    2     2       0.3779991892E-03      12    1    1       0.3467291682E+00      0.9657003608E+00      0.9678296187E+01      0.3779991892E-03
          0                 3           2             4    3     1       0.1991595038E-04      12    1    1       0.1684259158E-01      0.5255116539E-01      0.9657003608E+00      0.1991595038E-04

    ------------------------------------------------
       NWT REQUIRED            3 OUTER ITERATIONS 
       AND A TOTAL OF          9 INNER ITERATIONS.
    ------------------------------------------------
                                                   Max.-Head-Change                        Max.-Flux-Residual
  Residual-Control   Outer-Iter.   Inner-Iter.     Column Row Layer    Max.-Head-Change    Column Row Layer    Max.-Flux-Residual            L2-New               L2-Old           Solver-Max-Delh
          0                 1           4            12    2     1      -0.2091600186E-02      12    3    1      -0.1818667113E+01      0.4079190444E+01      0.5255116539E-01     -0.2091600186E-02
          0                 2           3            12    3     1       0.1850917202E-03      12    3    1       0.1889339769E+00      0.4076657135E+00      0.4079190444E+01      0.1850917202E-03
          0                 3           2            12    3     2       0.8476749690E-05       9    3    1       0.8068324649E-02      0.2293988904E-01      0.4076657135E+00      0.8476749690E-05

    ------------------------------------------------
       NWT REQUIRED            3 OUTER ITERATIONS 
       AND A TOTAL OF          9 INNER ITERATIONS.
    ------------------------------------------------
                                                   Max.-Head-Change                        Max.-Flux-Residual
  Residual-Control   Outer-Iter.   Inner-Iter.     Column Row Layer    Max.-Head-Change    Column Row Layer    Max.-Flux-Residual            L2-New               L2-Old           Solver-Max-Delh
          0                 1           4            12    3     1      -0.9726438091E-03      12    3    1      -0.9167013816E+00      0.1750422811E+01      0.2293988904E-01     -0.9726438091E-03
          0                 2           3            12    3     1       0.8649163322E-04      12    3    1       0.9499838608E-01      0.1749782850E+00      0.1750422811E+01      0.8649163322E-04

    ------------------------------------------------
       NWT REQUIRED            2 OUTER ITERATIONS 
       AND A TOTAL OF          7 INNER ITERATIONS.
    ------------------------------------------------
                                                   Max.-Head-Change                        Max.-Flux-Residual
  Residual-Control   Outer-Iter.   Inner-Iter.     Column Row Layer    Max.-Head-Change    Column Row Layer    Max.-Flux-Residual            L2-New               L2-Old           Solver-Max-Delh
          0                 1           3            12    3     1      -0.3793562332E-03      12    3    1      -0.3891301245E+00      0.7056212560E+00      0.1749782850E+00     -0.3793562332E-03
          0                 2           2            12    3     1       0.3683547613E-04      12    3    1       0.4702332473E-01      0.7665948255E-01      0.7056212560E+00      0.3683547613E-04

    ------------------------------------------------
       NWT REQUIRED            2 OUTER ITERATIONS 
       AND A TOTAL OF          5 INNER ITERATIONS.
    ------------------------------------------------
                                                   Max.-Head-Change                        Max.-Flux-Residual
  Residual-Control   Outer-Iter.   Inner-Iter.     Column Row Layer    Max.-Head-Change    Column Row Layer    Max.-Flux-Residual            L2-New               L2-Old           Solver-Max-Delh
          0                 1           3            12    3     1      -0.1362285949E-03      12    3    1      -0.1564407859E+00      0.3037652079E+00      0.7665948255E-01     -0.1362285949E-03
          0                 2           2             7    1     1      -0.1456622140E-04       7    1    1      -0.1496094815E-01      0.3551196665E-01      0.3037652079E+00     -0.1456622140E-04

    ------------------------------------------------
       NWT REQUIRED            2 OUTER ITERATIONS 
       AND A TOTAL OF          5 INNER ITERATIONS.
    ------------------------------------------------
          0                 1           3             5    3     1       0.8868147314E-04       6    3    1       0.4996360408E-01      0.1542360543E+00      0.3551196665E-01      0.8868147314E-04

    ------------------------------------------------
       NWT REQUIRED            1 OUTER ITERATIONS 
       AND A TOTAL OF          3 INNER ITERATIONS.
    ------------------------------------------------
          0                 1           2             1    3     1       0.4018756826E-04       1    1    1       0.4370580835E-01      0.8825609161E-01      0.1542360543E+00      0.4018756826E-04

    ------------------------------------------------
       NWT REQUIRED            1 OUTER ITERATIONS 
       AND A TOTAL OF          2 INNER ITERATIONS.
    ------------------------------------------------

 OUTPUT CONTROL FOR STRESS PERIOD      9   TIME STEP     1
    SAVE BUDGET
 UBDSV1 SAVING "         STORAGE" ON UNIT7012 AT TIME STEP    1, STRESS PERIOD   9
 UBDSV2 SAVING "   CONSTANT HEAD" ON UNIT7012 AT TIME STEP    1, STRESS PERIOD   9
 UBDSV1 SAVING "FLOW RIGHT FACE " ON UNIT7012 AT TIME STEP    1, STRESS PERIOD   9
 UBDSV1 SAVING "FLOW FRONT FACE " ON UNIT7012 AT TIME STEP    1, STRESS PERIOD   9
 UBDSV1 SAVING "FLOW LOWER FACE " ON UNIT7012 AT TIME STEP    1, STRESS PERIOD   9
 UBDSV4 SAVING " GHOST-NODE HEAD" ON UNIT7012 AT TIME STEP    1, STRESS PERIOD   9
1
  FLUX ACROSS PARENT-CHILD INTERFACE AT TIME STEP  1 IN STRESS PERIOD    9
  ------------------------------------------------------------------------
 G-N FLUX        PARENT        CHILD         DIFFERENCE      % DIFFERENCE
  RATE IN:      1.5183E+03    1.5182E+03     9.5581E-02        0.0063
 RATE OUT:      1.6963E+03    1.6965E+03    -2.4377E-01       -0.0144
 
 SOLVING FOR HEAD 
                                                   Max.-Head-Change                        Max.-Flux-Residual
  Residual-Control   Outer-Iter.   Inner-Iter.     Column Row Layer    Max.-Head-Change    Column Row Layer    Max.-Flux-Residual            L2-New               L2-Old           Solver-Max-Delh
          0                 1           5             7    3     4      -0.6250441775E-01       1    3    1      -0.4723995159E+02      0.1151216728E+03      0.8825609161E-01     -0.6250441775E-01
          0                 2           4             7    3     4       0.5390971612E-02       1    3    1       0.4711573602E+01      0.1149897764E+02      0.1151216728E+03      0.5390971612E-02
          0                 3           3             7    3     4       0.2716506507E-03       1    3    1       0.2291517564E+00      0.5692785327E+00      0.1149897764E+02      0.2716506507E-03
          0                 4           2             5    3     4       0.1411718484E-04      12    3    1       0.1359890253E-01      0.3289227784E-01      0.5692785327E+00      0.1411718484E-04

    ------------------------------------------------
       NWT REQUIRED            4 OUTER ITERATIONS 
       AND A TOTAL OF         14 INNER ITERATIONS.
    ------------------------------------------------
                                                   Max.-Head-Change                        Max.-Flux-Residual
  Residual-Control   Outer-Iter.   Inner-Iter.     Column Row Layer    Max.-Head-Change    Column Row Layer    Max.-Flux-Residual            L2-New               L2-Old           Solver-Max-Delh
          0                 1           5             7    1     1      -0.4429455750E-01       1    1    1      -0.2884374844E+02      0.8849646559E+02      0.3289227784E-01     -0.4429455750E-01
          0                 2           4             7    1     1       0.3823751296E-02       1    1    1       0.2870138912E+01      0.8840679049E+01      0.8849646559E+02      0.3823751296E-02
          0                 3           3             7    1     1       0.1915074215E-03       1    1    1       0.1414182783E+00      0.4391556091E+00      0.8840679049E+01      0.1915074215E-03
          0                 4           2            12    1     1       0.1166637143E-04      12    1    1       0.1150693069E-01      0.3026912118E-01      0.4391556091E+00      0.1166637143E-04

    ------------------------------------------------
       NWT REQUIRED            4 OUTER ITERATIONS 
       AND A TOTAL OF         14 INNER ITERATIONS.
    ------------------------------------------------
                                                   Max.-Head-Change                        Max.-Flux-Residual
  Residual-Control   Outer-Iter.   Inner-Iter.     Column Row Layer    Max.-Head-Change    Column Row Layer    Max.-Flux-Residual            L2-New               L2-Old           Solver-Max-Delh
          0                 1           5             7    1     1      -0.2254424231E-01       1    1    1      -0.1484326239E+02      0.4526317011E+02      0.3026912118E-01     -0.2254424231E-01
          0                 2           4             7    1     1       0.1945812168E-02       1    1    1       0.1473953365E+01      0.4520936324E+01      0.4526317011E+02      0.1945812168E-02
          0                 3           3             7    1     1       0.9621892273E-04       1    1    1       0.8171668043E-01      0.2256358821E+00      0.4520936324E+01      0.9621892273E-04

    ------------------------------------------------
       NWT REQUIRED            3 OUTER ITERATIONS 
       AND A TOTAL OF         12 INNER ITERATIONS.
    ------------------------------------------------
                                                   Max.-Head-Change                        Max.-Flux-Residual
  Residual-Control   Outer-Iter.   Inner-Iter.     Column Row Layer    Max.-Head-Change    Column Row Layer    Max.-Flux-Residual            L2-New               L2-Old           Solver-Max-Delh
          0                 1           5             7    1     1      -0.1024815703E-01       1    1    1      -0.7042903591E+01      0.2137824143E+02      0.2256358821E+00     -0.1024815703E-01
          0                 2           4             8    1     1       0.8835783285E-03       1    1    1       0.7049673036E+00      0.2134804041E+01      0.2137824143E+02      0.8835783285E-03
          0                 3           3             7    1     1       0.4706567268E-04       1    1    1       0.4154033668E-01      0.1114825001E+00      0.2134804041E+01      0.4706567268E-04

    ------------------------------------------------
       NWT REQUIRED            3 OUTER ITERATIONS 
       AND A TOTAL OF         12 INNER ITERATIONS.
    ------------------------------------------------
                                                   Max.-Head-Change                        Max.-Flux-Residual
  Residual-Control   Outer-Iter.   Inner-Iter.     Column Row Layer    Max.-Head-Change    Column Row Layer    Max.-Flux-Residual            L2-New               L2-Old           Solver-Max-Delh
          0                 1           4             8    1     1      -0.4124956726E-02       1    1    1      -0.3060977106E+01      0.9470787108E+01      0.1114825001E+00     -0.4124956726E-02
          0                 2           3             8    1     1       0.3515071359E-03      12    1    1       0.3083483739E+00      0.9457503908E+00      0.9470787108E+01      0.3515071359E-03
          0                 3           2             8    1     1       0.2213723588E-04       1    3    1       0.2153512894E-01      0.5464735488E-01      0.9457503908E+00      0.2213723588E-04

    ------------------------------------------------
       NWT REQUIRED            3 OUTER ITERATIONS 
       AND A TOTAL OF          9 INNER ITERATIONS.
    ------------------------------------------------
                                                   Max.-Head-Change                        Max.-Flux-Residual
  Residual-Control   Outer-Iter.   Inner-Iter.     Column Row Layer    Max.-Head-Change    Column Row Layer    Max.-Flux-Residual            L2-New               L2-Old           Solver-Max-Delh
          0                 1           4            12    3     2      -0.1899223345E-02       1    3    1      -0.1468414535E+01      0.4053489368E+01      0.5464735488E-01     -0.1899223345E-02
          0                 2           3            12    3     2       0.1638155738E-03       1    3    1       0.1425470051E+00      0.4075211646E+00      0.4053489368E+01      0.1638155738E-03
          0                 3           2             6    3     1       0.9887515696E-05      12    3    1       0.1202246698E-01      0.2600771137E-01      0.4075211646E+00      0.9887515696E-05

    ------------------------------------------------
       NWT REQUIRED            3 OUTER ITERATIONS 
       AND A TOTAL OF          9 INNER ITERATIONS.
    ------------------------------------------------
                                                   Max.-Head-Change                        Max.-Flux-Residual
  Residual-Control   Outer-Iter.   Inner-Iter.     Column Row Layer    Max.-Head-Change    Column Row Layer    Max.-Flux-Residual            L2-New               L2-Old           Solver-Max-Delh
          0                 1           4            12    3     2      -0.8798191067E-03      12    3    1      -0.7276702604E+00      0.1718028951E+01      0.2600771137E-01     -0.8798191067E-03
          0                 2           3            12    3     2       0.7612502623E-04      12    3    1       0.7304639410E-01      0.1757501244E+00      0.1718028951E+01      0.7612502623E-04

    ------------------------------------------------
       NWT REQUIRED            2 OUTER ITERATIONS 
       AND A TOTAL OF          7 INNER ITERATIONS.
    ------------------------------------------------
                                                   Max.-Head-Change                        Max.-Flux-Residual
  Residual-Control   Outer-Iter.   Inner-Iter.     Column Row Layer    Max.-Head-Change    Column Row Layer    Max.-Flux-Residual            L2-New               L2-Old           Solver-Max-Delh
          0                 1           3            12    3     2      -0.3432953069E-03      12    3    1      -0.3186151144E+00      0.6843542694E+00      0.1757501244E+00     -0.3432953069E-03
          0                 2           2            12    3     1       0.3230334367E-04      12    3    1       0.3739003895E-01      0.7294954511E-01      0.6843542694E+00      0.3230334367E-04

    ------------------------------------------------
       NWT REQUIRED            2 OUTER ITERATIONS 
       AND A TOTAL OF          5 INNER ITERATIONS.
    ------------------------------------------------
                                                   Max.-Head-Change                        Max.-Flux-Residual
  Residual-Control   Outer-Iter.   Inner-Iter.     Column Row Layer    Max.-Head-Change    Column Row Layer    Max.-Flux-Residual            L2-New               L2-Old           Solver-Max-Delh
          0                 1           3            12    3     2      -0.1189714722E-03      12    3    1      -0.1244180276E+00      0.2490050797E+00      0.7294954511E-01     -0.1189714722E-03
          0                 2           2            12    3     1       0.1301328150E-04      12    3    1       0.1981384697E-01      0.3295023146E-01      0.2490050797E+00      0.1301328150E-04

    ------------------------------------------------
       NWT REQUIRED            2 OUTER ITERATIONS 
       AND A TOTAL OF          5 INNER ITERATIONS.
    ------------------------------------------------
          0                 1           2             8    1     1       0.4871270240E-04       8    1    1       0.3863938281E-01      0.8959641652E-01      0.3295023146E-01      0.4871270240E-04

    ------------------------------------------------
       NWT REQUIRED            1 OUTER ITERATIONS 
       AND A TOTAL OF          2 INNER ITERATIONS.
    ------------------------------------------------
          0                 1           2             8    3     1       0.4497844679E-04       8    3    1       0.3055544564E-01      0.7721209011E-01      0.8959641652E-01      0.4497844679E-04

    ------------------------------------------------
       NWT REQUIRED            1 OUTER ITERATIONS 
       AND A TOTAL OF          2 INNER ITERATIONS.
    ------------------------------------------------

 OUTPUT CONTROL FOR STRESS PERIOD      9   TIME STEP     2
    PRINT BUDGET
    SAVE HEAD FOR ALL LAYERS
    SAVE BUDGET
 UBDSV1 SAVING "         STORAGE" ON UNIT7012 AT TIME STEP    2, STRESS PERIOD   9
 UBDSV2 SAVING "   CONSTANT HEAD" ON UNIT7012 AT TIME STEP    2, STRESS PERIOD   9
 UBDSV1 SAVING "FLOW RIGHT FACE " ON UNIT7012 AT TIME STEP    2, STRESS PERIOD   9
 UBDSV1 SAVING "FLOW FRONT FACE " ON UNIT7012 AT TIME STEP    2, STRESS PERIOD   9
 UBDSV1 SAVING "FLOW LOWER FACE " ON UNIT7012 AT TIME STEP    2, STRESS PERIOD   9
 UBDSV4 SAVING " GHOST-NODE HEAD" ON UNIT7012 AT TIME STEP    2, STRESS PERIOD   9

 HEAD WILL BE SAVED ON UNIT 2212 AT END OF TIME STEP     2, STRESS PERIOD      9
1
  VOLUMETRIC BUDGET FOR ENTIRE MODEL AT END OF TIME STEP    2 IN STRESS PERIOD      9
  ------------------------------------------------------------------------------

     CUMULATIVE VOLUMES      L**3       RATES FOR THIS TIME STEP      L**3/T
     ------------------                 ------------------------

           IN:                                      IN:
           ---                                      ---
             STORAGE =       22822.6738               STORAGE =         145.7189
       CONSTANT HEAD =           0.0000         CONSTANT HEAD =           0.0000
     GHOST-NODE HEAD =     1944905.2500       GHOST-NODE HEAD =        1536.7969

            TOTAL IN =     1967727.8750              TOTAL IN =        1682.5157

          OUT:                                     OUT:
          ----                                     ----
             STORAGE =     1608553.7500               STORAGE =           0.0000
       CONSTANT HEAD =           0.0000         CONSTANT HEAD =           0.0000
     GHOST-NODE HEAD =      359174.1250       GHOST-NODE HEAD =        1682.5559

           TOTAL OUT =     1967727.8750             TOTAL OUT =        1682.5559

            IN - OUT =           0.0000              IN - OUT =      -4.0161E-02

 PERCENT DISCREPANCY =           0.00     PERCENT DISCREPANCY =          -0.00






          TIME SUMMARY AT END OF TIME STEP     2 IN STRESS PERIOD      9
                    SECONDS     MINUTES      HOURS       DAYS        YEARS
                    -----------------------------------------------------------
   TIME STEP LENGTH 1.31414E+06  21902.      365.04      15.210     4.16427E-02
 STRESS PERIOD TIME 2.62829E+06  43805.      730.08      30.420     8.32854E-02
         TOTAL TIME 2.36546E+07 3.94243E+05  6570.7      273.78     0.74957    
1
1
  FLUX ACROSS PARENT-CHILD INTERFACE AT TIME STEP  2 IN STRESS PERIOD    9
  ------------------------------------------------------------------------
 G-N FLUX        PARENT        CHILD         DIFFERENCE      % DIFFERENCE
  RATE IN:      1.5369E+03    1.5368E+03     1.3818E-01        0.0090
 RATE OUT:      1.6823E+03    1.6826E+03    -2.1912E-01       -0.0130
1
                            STRESS PERIOD NO.     10, LENGTH =   30.42000    
                            -----------------------------------------------

                              NUMBER OF TIME STEPS =     2

                               MULTIPLIER FOR DELT =     1.000

                            INITIAL TIME STEP SIZE =   15.21000    
 
 SOLVING FOR HEAD 
                                                   Max.-Head-Change                        Max.-Flux-Residual
  Residual-Control   Outer-Iter.   Inner-Iter.     Column Row Layer    Max.-Head-Change    Column Row Layer    Max.-Flux-Residual            L2-New               L2-Old           Solver-Max-Delh
          0                 1           5             4    3     4      -0.5532896116E-01       1    3    1      -0.3850362780E+02      0.1068683969E+03      0.7721209011E-01     -0.5532896116E-01
          0                 2           4             4    3     4       0.4773323098E-02       1    3    1       0.3838377185E+01      0.1067217013E+02      0.1068683969E+03      0.4773323098E-02
          0                 3           3             4    3     4       0.2396501989E-03       1    3    1       0.1966303549E+00      0.5346176379E+00      0.1067217013E+02      0.2396501989E-03
          0                 4           2             2    3     1       0.1278700881E-04      12    2    1      -0.1022132457E-01      0.3559609518E-01      0.5346176379E+00      0.1278700881E-04

    ------------------------------------------------
       NWT REQUIRED            4 OUTER ITERATIONS 
       AND A TOTAL OF         14 INNER ITERATIONS.
    ------------------------------------------------
                                                   Max.-Head-Change                        Max.-Flux-Residual
  Residual-Control   Outer-Iter.   Inner-Iter.     Column Row Layer    Max.-Head-Change    Column Row Layer    Max.-Flux-Residual            L2-New               L2-Old           Solver-Max-Delh
          0                 1           5             7    1     1      -0.3423280211E-01       1    1    1      -0.2028570919E+02      0.6375259065E+02      0.3559609518E-01     -0.3423280211E-01
          0                 2           4             7    1     1       0.2950899743E-02       1    1    1       0.2012255817E+01      0.6352761974E+01      0.6375259065E+02      0.2950899743E-02
          0                 3           3             7    1     1       0.1463012369E-03       1    1    1       0.1033077454E+00      0.3173324224E+00      0.6352761974E+01      0.1463012369E-03
          0                 4           2             1    1     1       0.9899236930E-05       1    1    1       0.1360721071E-01      0.2748377643E-01      0.3173324224E+00      0.9899236930E-05

    ------------------------------------------------
       NWT REQUIRED            4 OUTER ITERATIONS 
       AND A TOTAL OF         14 INNER ITERATIONS.
    ------------------------------------------------
                                                   Max.-Head-Change                        Max.-Flux-Residual
  Residual-Control   Outer-Iter.   Inner-Iter.     Column Row Layer    Max.-Head-Change    Column Row Layer    Max.-Flux-Residual            L2-New               L2-Old           Solver-Max-Delh
          0                 1           5             7    1     1      -0.1814657081E-01       1    1    1      -0.1149875411E+02      0.3385281111E+02      0.2748377643E-01     -0.1814657081E-01
          0                 2           4             7    1     1       0.1566063142E-02       1    1    1       0.1150491704E+01      0.3376554758E+01      0.3385281111E+02      0.1566063142E-02
          0                 3           3             7    1     1       0.7962358150E-04       9    1    1       0.5738303566E-01      0.1689939688E+00      0.3376554758E+01      0.7962358150E-04

    ------------------------------------------------
       NWT REQUIRED            3 OUTER ITERATIONS 
       AND A TOTAL OF         12 INNER ITERATIONS.
    ------------------------------------------------
                                                   Max.-Head-Change                        Max.-Flux-Residual
  Residual-Control   Outer-Iter.   Inner-Iter.     Column Row Layer    Max.-Head-Change    Column Row Layer    Max.-Flux-Residual            L2-New               L2-Old           Solver-Max-Delh
          0                 1           5             7    1     1      -0.8030004856E-02       1    1    1      -0.5672067102E+01      0.1582103953E+02      0.1689939688E+00     -0.8030004856E-02
          0                 2           4             7    1     1       0.6920338591E-03       1    1    1       0.5702333401E+00      0.1577113106E+01      0.1582103953E+02      0.6920338591E-03
          0                 3           2             8    1     1       0.3485409009E-04       1    1    1       0.3017773805E-01      0.8030870116E-01      0.1577113106E+01      0.3485409009E-04

    ------------------------------------------------
       NWT REQUIRED            3 OUTER ITERATIONS 
       AND A TOTAL OF         11 INNER ITERATIONS.
    ------------------------------------------------
                                                   Max.-Head-Change                        Max.-Flux-Residual
  Residual-Control   Outer-Iter.   Inner-Iter.     Column Row Layer    Max.-Head-Change    Column Row Layer    Max.-Flux-Residual            L2-New               L2-Old           Solver-Max-Delh
          0                 1           4             1    1     2      -0.3026895459E-02       1    1    1      -0.2542476623E+01      0.6893504797E+01      0.8030870116E-01     -0.3026895459E-02
          0                 2           3             7    1     1       0.2624550984E-03       1    1    1       0.2587964529E+00      0.6927545156E+00      0.6893504797E+01      0.2624550984E-03
          0                 3           2             6    1     1       0.1823520504E-04       8    1    1       0.1497371506E-01      0.3884660350E-01      0.6927545156E+00      0.1823520504E-04

    ------------------------------------------------
       NWT REQUIRED            3 OUTER ITERATIONS 
       AND A TOTAL OF          9 INNER ITERATIONS.
    ------------------------------------------------
                                                   Max.-Head-Change                        Max.-Flux-Residual
  Residual-Control   Outer-Iter.   Inner-Iter.     Column Row Layer    Max.-Head-Change    Column Row Layer    Max.-Flux-Residual            L2-New               L2-Old           Solver-Max-Delh
          0                 1           4            12    2     1      -0.1524292551E-02      12    3    1      -0.1225068518E+01      0.3019642474E+01      0.3884660350E-01     -0.1524292551E-02
          0                 2           3            12    2     1       0.1345491911E-03      12    3    1       0.1246777546E+00      0.3046093570E+00      0.3019642474E+01      0.1345491911E-03
          0                 3           2             5    3     1       0.9947138293E-05      12    1    1       0.1319133618E-01      0.2984606629E-01      0.3046093570E+00      0.9947138293E-05

    ------------------------------------------------
       NWT REQUIRED            3 OUTER ITERATIONS 
       AND A TOTAL OF          9 INNER ITERATIONS.
    ------------------------------------------------
                                                   Max.-Head-Change                        Max.-Flux-Residual
  Residual-Control   Outer-Iter.   Inner-Iter.     Column Row Layer    Max.-Head-Change    Column Row Layer    Max.-Flux-Residual            L2-New               L2-Old           Solver-Max-Delh
          0                 1           4            12    2     1      -0.7839713959E-03      12    3    1      -0.7372688545E+00      0.1433467416E+01      0.2984606629E-01     -0.7839713959E-03
          0                 2           3            12    2     1       0.6847512349E-04      12    3    1       0.7151072528E-01      0.1462243921E+00      0.1433467416E+01      0.6847512349E-04

    ------------------------------------------------
       NWT REQUIRED            2 OUTER ITERATIONS 
       AND A TOTAL OF          7 INNER ITERATIONS.
    ------------------------------------------------
                                                   Max.-Head-Change                        Max.-Flux-Residual
  Residual-Control   Outer-Iter.   Inner-Iter.     Column Row Layer    Max.-Head-Change    Column Row Layer    Max.-Flux-Residual            L2-New               L2-Old           Solver-Max-Delh
          0                 1           3            12    3     1      -0.3897693320E-03      12    3    1      -0.3845485708E+00      0.7063163239E+00      0.1462243921E+00     -0.3897693320E-03
          0                 2           2            12    2     1       0.3321119453E-04      12    2    1       0.3296208073E-01      0.7096024448E-01      0.7063163239E+00      0.3321119453E-04

    ------------------------------------------------
       NWT REQUIRED            2 OUTER ITERATIONS 
       AND A TOTAL OF          5 INNER ITERATIONS.
    ------------------------------------------------
                                                   Max.-Head-Change                        Max.-Flux-Residual
  Residual-Control   Outer-Iter.   Inner-Iter.     Column Row Layer    Max.-Head-Change    Column Row Layer    Max.-Flux-Residual            L2-New               L2-Old           Solver-Max-Delh
          0                 1           3            12    3     1      -0.1606084953E-03      12    3    1      -0.1608240480E+00      0.2988470041E+00      0.7096024448E-01     -0.1606084953E-03
          0                 2           2            12    2     1       0.1381887883E-04      12    2    1       0.1703602186E-01      0.3246476219E-01      0.2988470041E+00      0.1381887883E-04

    ------------------------------------------------
       NWT REQUIRED            2 OUTER ITERATIONS 
       AND A TOTAL OF          5 INNER ITERATIONS.
    ------------------------------------------------
          0                 1           3            12    3     1      -0.5894780579E-04      12    3    1      -0.6020643495E-01      0.1224319006E+00      0.3246476219E-01     -0.5894780579E-04

    ------------------------------------------------
       NWT REQUIRED            1 OUTER ITERATIONS 
       AND A TOTAL OF          3 INNER ITERATIONS.
    ------------------------------------------------
          0                 1           2             3    3     1       0.3089591799E-04       3    3    1       0.2573399036E-01      0.5177631407E-01      0.1224319006E+00      0.3089591799E-04

    ------------------------------------------------
       NWT REQUIRED            1 OUTER ITERATIONS 
       AND A TOTAL OF          2 INNER ITERATIONS.
    ------------------------------------------------

 OUTPUT CONTROL FOR STRESS PERIOD     10   TIME STEP     1
    SAVE BUDGET
 UBDSV1 SAVING "         STORAGE" ON UNIT7012 AT TIME STEP    1, STRESS PERIOD  10
 UBDSV2 SAVING "   CONSTANT HEAD" ON UNIT7012 AT TIME STEP    1, STRESS PERIOD  10
 UBDSV1 SAVING "FLOW RIGHT FACE " ON UNIT7012 AT TIME STEP    1, STRESS PERIOD  10
 UBDSV1 SAVING "FLOW FRONT FACE " ON UNIT7012 AT TIME STEP    1, STRESS PERIOD  10
 UBDSV1 SAVING "FLOW LOWER FACE " ON UNIT7012 AT TIME STEP    1, STRESS PERIOD  10
 UBDSV4 SAVING " GHOST-NODE HEAD" ON UNIT7012 AT TIME STEP    1, STRESS PERIOD  10
1
  FLUX ACROSS PARENT-CHILD INTERFACE AT TIME STEP  1 IN STRESS PERIOD   10
  ------------------------------------------------------------------------
 G-N FLUX        PARENT        CHILD         DIFFERENCE      % DIFFERENCE
  RATE IN:      1.5418E+03    1.5418E+03     1.9287E-02        0.0013
 RATE OUT:      1.6405E+03    1.6407E+03    -2.3486E-01       -0.0143
 
 SOLVING FOR HEAD 
                                                   Max.-Head-Change                        Max.-Flux-Residual
  Residual-Control   Outer-Iter.   Inner-Iter.     Column Row Layer    Max.-Head-Change    Column Row Layer    Max.-Flux-Residual            L2-New               L2-Old           Solver-Max-Delh
          0                 1           5             3    3     4      -0.4608189866E-01       1    3    1      -0.3154361752E+02      0.8310582509E+02      0.5177631407E-01     -0.4608189866E-01
          0                 2           4             3    3     4       0.3977026019E-02       1    3    1       0.3139491976E+01      0.8304031464E+01      0.8310582509E+02      0.3977026019E-02
          0                 3           3             3    3     4       0.1994826565E-03       1    3    1       0.1693561402E+00      0.4228551942E+00      0.8304031464E+01      0.1994826565E-03
          0                 4           2             4    3     4       0.1017157555E-04      12    1    1      -0.1669894462E-01      0.2927559108E-01      0.4228551942E+00      0.1017157555E-04

    ------------------------------------------------
       NWT REQUIRED            4 OUTER ITERATIONS 
       AND A TOTAL OF         14 INNER ITERATIONS.
    ------------------------------------------------
                                                   Max.-Head-Change                        Max.-Flux-Residual
  Residual-Control   Outer-Iter.   Inner-Iter.     Column Row Layer    Max.-Head-Change    Column Row Layer    Max.-Flux-Residual            L2-New               L2-Old           Solver-Max-Delh
          0                 1           5             7    1     1      -0.2931667512E-01       1    1    1      -0.1771948710E+02      0.5459210265E+02      0.2927559108E-01     -0.2931667512E-01
          0                 2           4             7    1     1       0.2529041931E-02       1    1    1       0.1755582302E+01      0.5443976320E+01      0.5459210265E+02      0.2529041931E-02
          0                 3           3             8    1     1       0.1275519710E-03       1    1    1       0.9358435113E-01      0.2789337423E+00      0.5443976320E+01      0.1275519710E-03
          0                 4           2            12    1     1       0.7032353984E-05      12    1    1       0.1321827329E-01      0.2328757467E-01      0.2789337423E+00      0.7032353984E-05

    ------------------------------------------------
       NWT REQUIRED            4 OUTER ITERATIONS 
       AND A TOTAL OF         14 INNER ITERATIONS.
    ------------------------------------------------
                                                   Max.-Head-Change                        Max.-Flux-Residual
  Residual-Control   Outer-Iter.   Inner-Iter.     Column Row Layer    Max.-Head-Change    Column Row Layer    Max.-Flux-Residual            L2-New               L2-Old           Solver-Max-Delh
          0                 1           5             7    1     1      -0.1571487638E-01       1    1    1      -0.9697343120E+01      0.2946679226E+02      0.2328757467E-01     -0.1571487638E-01
          0                 2           4             7    1     1       0.1352121120E-02       1    1    1       0.9685305643E+00      0.2936629032E+01      0.2946679226E+02      0.1352121120E-02
          0                 3           3             7    1     1       0.6748489278E-04       9    1    1       0.4886608163E-01      0.1458573210E+00      0.2936629032E+01      0.6748489278E-04

    ------------------------------------------------
       NWT REQUIRED            3 OUTER ITERATIONS 
       AND A TOTAL OF         12 INNER ITERATIONS.
    ------------------------------------------------
                                                   Max.-Head-Change                        Max.-Flux-Residual
  Residual-Control   Outer-Iter.   Inner-Iter.     Column Row Layer    Max.-Head-Change    Column Row Layer    Max.-Flux-Residual            L2-New               L2-Old           Solver-Max-Delh
          0                 1           4             7    1     1      -0.7121035020E-02       1    1    1      -0.4640440748E+01      0.1378212833E+02      0.1458573210E+00     -0.7121035020E-02
          0                 2           3             7    1     1       0.6145137158E-03       1    1    1       0.4704068874E+00      0.1380474387E+01      0.1378212833E+02      0.6145137158E-03
          0                 3           2             7    1     1       0.3189612049E-04       8    1    1       0.2296737768E-01      0.6415705877E-01      0.1380474387E+01      0.3189612049E-04

    ------------------------------------------------
       NWT REQUIRED            3 OUTER ITERATIONS 
       AND A TOTAL OF          9 INNER ITERATIONS.
    ------------------------------------------------
                                                   Max.-Head-Change                        Max.-Flux-Residual
  Residual-Control   Outer-Iter.   Inner-Iter.     Column Row Layer    Max.-Head-Change    Column Row Layer    Max.-Flux-Residual            L2-New               L2-Old           Solver-Max-Delh
          0                 1           4             7    1     1      -0.2776431989E-02       1    1    1      -0.2000037523E+01      0.5844003430E+01      0.6415705877E-01     -0.2776431989E-02
          0                 2           3             7    1     1       0.2408991773E-03       1    1    1       0.2085636065E+00      0.5877893875E+00      0.5844003430E+01      0.2408991773E-03
          0                 3           2            11    1     1       0.1366676638E-04      11    1    1       0.1141661895E-01      0.3070139865E-01      0.5877893875E+00      0.1366676638E-04

    ------------------------------------------------
       NWT REQUIRED            3 OUTER ITERATIONS 
       AND A TOTAL OF          9 INNER ITERATIONS.
    ------------------------------------------------
                                                   Max.-Head-Change                        Max.-Flux-Residual
  Residual-Control   Outer-Iter.   Inner-Iter.     Column Row Layer    Max.-Head-Change    Column Row Layer    Max.-Flux-Residual            L2-New               L2-Old           Solver-Max-Delh
          0                 1           4            12    3     2      -0.1134276264E-02      12    3    1      -0.8904806775E+00      0.2436752238E+01      0.3070139865E-01     -0.1134276264E-02
          0                 2           3            12    3     1       0.9911389896E-04      12    3    1       0.9698100141E-01      0.2457311855E+00      0.2436752238E+01      0.9911389896E-04

    ------------------------------------------------
       NWT REQUIRED            2 OUTER ITERATIONS 
       AND A TOTAL OF          7 INNER ITERATIONS.
    ------------------------------------------------
                                                   Max.-Head-Change                        Max.-Flux-Residual
  Residual-Control   Outer-Iter.   Inner-Iter.     Column Row Layer    Max.-Head-Change    Column Row Layer    Max.-Flux-Residual            L2-New               L2-Old           Solver-Max-Delh
          0                 1           4            12    3     2      -0.5768445477E-03      12    3    1      -0.4993146746E+00      0.1099135931E+01      0.2457311855E+00     -0.5768445477E-03
          0                 2           3            12    3     2       0.4982455983E-04      12    3    1       0.5553700033E-01      0.1123879932E+00      0.1099135931E+01      0.4982455983E-04

    ------------------------------------------------
       NWT REQUIRED            2 OUTER ITERATIONS 
       AND A TOTAL OF          7 INNER ITERATIONS.
    ------------------------------------------------
                                                   Max.-Head-Change                        Max.-Flux-Residual
  Residual-Control   Outer-Iter.   Inner-Iter.     Column Row Layer    Max.-Head-Change    Column Row Layer    Max.-Flux-Residual            L2-New               L2-Old           Solver-Max-Delh
          0                 1           3            12    3     1      -0.2587438537E-03      12    3    1      -0.2615614235E+00      0.5293092871E+00      0.1123879932E+00     -0.2587438537E-03
          0                 2           2            12    3     1       0.2532427367E-04      12    3    1       0.2680408390E-01      0.6304480892E-01      0.5293092871E+00      0.2532427367E-04

    ------------------------------------------------
       NWT REQUIRED            2 OUTER ITERATIONS 
       AND A TOTAL OF          5 INNER ITERATIONS.
    ------------------------------------------------
          0                 1           3            12    3     2      -0.8163612311E-04       9    1    1       0.7611735433E-01      0.2174368856E+00      0.6304480892E-01     -0.8163612311E-04

    ------------------------------------------------
       NWT REQUIRED            1 OUTER ITERATIONS 
       AND A TOTAL OF          3 INNER ITERATIONS.
    ------------------------------------------------
          0                 1           2             6    1     1       0.3668648355E-04      12    3    1      -0.3746308209E-01      0.7916543875E-01      0.2174368856E+00      0.3668648355E-04

    ------------------------------------------------
       NWT REQUIRED            1 OUTER ITERATIONS 
       AND A TOTAL OF          2 INNER ITERATIONS.
    ------------------------------------------------
          0                 1           2             9    3     1       0.2575884087E-04       9    3    1       0.2523929242E-01      0.5197292913E-01      0.7916543875E-01      0.2575884087E-04

    ------------------------------------------------
       NWT REQUIRED            1 OUTER ITERATIONS 
       AND A TOTAL OF          2 INNER ITERATIONS.
    ------------------------------------------------

 OUTPUT CONTROL FOR STRESS PERIOD     10   TIME STEP     2
    SAVE HEAD FOR ALL LAYERS
    SAVE BUDGET
 UBDSV1 SAVING "         STORAGE" ON UNIT7012 AT TIME STEP    2, STRESS PERIOD  10
 UBDSV2 SAVING "   CONSTANT HEAD" ON UNIT7012 AT TIME STEP    2, STRESS PERIOD  10
 UBDSV1 SAVING "FLOW RIGHT FACE " ON UNIT7012 AT TIME STEP    2, STRESS PERIOD  10
 UBDSV1 SAVING "FLOW FRONT FACE " ON UNIT7012 AT TIME STEP    2, STRESS PERIOD  10
 UBDSV1 SAVING "FLOW LOWER FACE " ON UNIT7012 AT TIME STEP    2, STRESS PERIOD  10
 UBDSV4 SAVING " GHOST-NODE HEAD" ON UNIT7012 AT TIME STEP    2, STRESS PERIOD  10

 HEAD WILL BE SAVED ON UNIT 2212 AT END OF TIME STEP     2, STRESS PERIOD     10
1
  VOLUMETRIC BUDGET FOR ENTIRE MODEL AT END OF TIME STEP    2 IN STRESS PERIOD     10
  ------------------------------------------------------------------------------

     CUMULATIVE VOLUMES      L**3       RATES FOR THIS TIME STEP      L**3/T
     ------------------                 ------------------------

           IN:                                      IN:
           ---                                      ---
             STORAGE =       25475.7754               STORAGE =          75.5088
       CONSTANT HEAD =           0.0000         CONSTANT HEAD =           0.0000
     GHOST-NODE HEAD =     1992041.7500       GHOST-NODE HEAD =        1557.2572

            TOTAL IN =     2017517.5000              TOTAL IN =        1632.7660

          OUT:                                     OUT:
          ----                                     ----
             STORAGE =     1608553.7500               STORAGE =           0.0000
       CONSTANT HEAD =           0.0000         CONSTANT HEAD =           0.0000
     GHOST-NODE HEAD =      408964.3125       GHOST-NODE HEAD =        1632.7749

           TOTAL OUT =     2017518.0000             TOTAL OUT =        1632.7749

            IN - OUT =          -0.5000              IN - OUT =      -8.9111E-03

 PERCENT DISCREPANCY =          -0.00     PERCENT DISCREPANCY =          -0.00






          TIME SUMMARY AT END OF TIME STEP     2 IN STRESS PERIOD     10
                    SECONDS     MINUTES      HOURS       DAYS        YEARS
                    -----------------------------------------------------------
   TIME STEP LENGTH 1.31414E+06  21902.      365.04      15.210     4.16427E-02
 STRESS PERIOD TIME 2.62829E+06  43805.      730.08      30.420     8.32854E-02
         TOTAL TIME 2.62829E+07 4.38048E+05  7300.8      304.20     0.83285    
1
1
  FLUX ACROSS PARENT-CHILD INTERFACE AT TIME STEP  2 IN STRESS PERIOD   10
  ------------------------------------------------------------------------
 G-N FLUX        PARENT        CHILD         DIFFERENCE      % DIFFERENCE
  RATE IN:      1.5573E+03    1.5573E+03     2.7344E-02        0.0018
 RATE OUT:      1.6326E+03    1.6328E+03    -1.6858E-01       -0.0103
1
                            STRESS PERIOD NO.     11, LENGTH =   30.42000    
                            -----------------------------------------------

                              NUMBER OF TIME STEPS =     2

                               MULTIPLIER FOR DELT =     1.000

                            INITIAL TIME STEP SIZE =   15.21000    
 
 SOLVING FOR HEAD 
                                                   Max.-Head-Change                        Max.-Flux-Residual
  Residual-Control   Outer-Iter.   Inner-Iter.     Column Row Layer    Max.-Head-Change    Column Row Layer    Max.-Flux-Residual            L2-New               L2-Old           Solver-Max-Delh
          0                 1           5             1    1     1       0.4474170474E-01       1    1    1       0.4745643327E+02      0.1386014435E+03      0.5197292913E-01      0.4474170474E-01
          0                 2           4             1    1     1      -0.3853804883E-02       1    1    1      -0.4743661272E+01      0.1387662543E+02      0.1386014435E+03     -0.3853804883E-02
          0                 3           3             1    1     1      -0.1911839945E-03       1    1    1      -0.2338924761E+00      0.6903173746E+00      0.1387662543E+02     -0.1911839945E-03
          0                 4           2             9    1     1      -0.1056041525E-04      11    1    1      -0.1393124578E-01      0.3569826576E-01      0.6903173746E+00     -0.1056041525E-04

    ------------------------------------------------
       NWT REQUIRED            4 OUTER ITERATIONS 
       AND A TOTAL OF         14 INNER ITERATIONS.
    ------------------------------------------------
                                                   Max.-Head-Change                        Max.-Flux-Residual
  Residual-Control   Outer-Iter.   Inner-Iter.     Column Row Layer    Max.-Head-Change    Column Row Layer    Max.-Flux-Residual            L2-New               L2-Old           Solver-Max-Delh
          0                 1           5            12    3     1      -0.2311290328E-01      12    3    1      -0.2484439738E+02      0.4912040154E+02      0.3569826576E-01     -0.2311290328E-01
          0                 2           4            12    3     1       0.2013941862E-02      12    3    1       0.2506021323E+01      0.4923356415E+01      0.4912040154E+02      0.2013941862E-02
          0                 3           3            12    3     1       0.9328280534E-04      12    3    1       0.1153811064E+00      0.2442335013E+00      0.4923356415E+01      0.9328280534E-04

    ------------------------------------------------
       NWT REQUIRED            3 OUTER ITERATIONS 
       AND A TOTAL OF         12 INNER ITERATIONS.
    ------------------------------------------------
                                                   Max.-Head-Change                        Max.-Flux-Residual
  Residual-Control   Outer-Iter.   Inner-Iter.     Column Row Layer    Max.-Head-Change    Column Row Layer    Max.-Flux-Residual            L2-New               L2-Old           Solver-Max-Delh
          0                 1           4            12    2     1      -0.8351906974E-02      12    3    1      -0.7460634725E+01      0.1596002527E+02      0.2442335013E+00     -0.8351906974E-02
          0                 2           3            12    2     1       0.7305908301E-03      12    3    1       0.7598711466E+00      0.1604809913E+01      0.1596002527E+02      0.7305908301E-03
          0                 3           2            12    2     1       0.2957749844E-04       1    3    1      -0.3527018393E-01      0.7364640848E-01      0.1604809913E+01      0.2957749844E-04

    ------------------------------------------------
       NWT REQUIRED            3 OUTER ITERATIONS 
       AND A TOTAL OF          9 INNER ITERATIONS.
    ------------------------------------------------
                                                   Max.-Head-Change                        Max.-Flux-Residual
  Residual-Control   Outer-Iter.   Inner-Iter.     Column Row Layer    Max.-Head-Change    Column Row Layer    Max.-Flux-Residual            L2-New               L2-Old           Solver-Max-Delh
          0                 1           4            12    1     1      -0.4446368434E-02      12    1    1      -0.4361134658E+01      0.9944734980E+01      0.7364640848E-01     -0.4446368434E-02
          0                 2           3            12    1     1       0.3823001933E-03      12    1    1       0.4344705395E+00      0.9932915589E+00      0.9944734980E+01      0.3823001933E-03
          0                 3           2            12    1     1       0.2298942928E-04      12    1    1       0.2833323687E-01      0.5659171686E-01      0.9932915589E+00      0.2298942928E-04

    ------------------------------------------------
       NWT REQUIRED            3 OUTER ITERATIONS 
       AND A TOTAL OF          9 INNER ITERATIONS.
    ------------------------------------------------
                                                   Max.-Head-Change                        Max.-Flux-Residual
  Residual-Control   Outer-Iter.   Inner-Iter.     Column Row Layer    Max.-Head-Change    Column Row Layer    Max.-Flux-Residual            L2-New               L2-Old           Solver-Max-Delh
          0                 1           4            10    1     1      -0.2743364335E-02      11    1    1      -0.2355339476E+01      0.6627966989E+01      0.5659171686E-01     -0.2743364335E-02
          0                 2           3            10    1     1       0.2339026204E-03      10    1    1       0.2332563713E+00      0.6576724218E+00      0.6627966989E+01      0.2339026204E-03
          0                 3           2            10    1     1       0.1216673440E-04      10    1    1       0.1273328834E-01      0.3628420985E-01      0.6576724218E+00      0.1216673440E-04

    ------------------------------------------------
       NWT REQUIRED            3 OUTER ITERATIONS 
       AND A TOTAL OF          9 INNER ITERATIONS.
    ------------------------------------------------
                                                   Max.-Head-Change                        Max.-Flux-Residual
  Residual-Control   Outer-Iter.   Inner-Iter.     Column Row Layer    Max.-Head-Change    Column Row Layer    Max.-Flux-Residual            L2-New               L2-Old           Solver-Max-Delh
          0                 1           4            10    1     1      -0.1460268871E-02      10    1    1      -0.1291482682E+01      0.3375147771E+01      0.3628420985E-01     -0.1460268871E-02
          0                 2           3            10    1     1       0.1266404781E-03      10    1    1       0.1308121989E+00      0.3412186329E+00      0.3375147771E+01      0.1266404781E-03
          0                 3           2             1    2     1       0.7131907104E-05      11    1    1       0.1000055310E-01      0.2124072836E-01      0.3412186329E+00      0.7131907104E-05

    ------------------------------------------------
       NWT REQUIRED            3 OUTER ITERATIONS 
       AND A TOTAL OF          9 INNER ITERATIONS.
    ------------------------------------------------
                                                   Max.-Head-Change                        Max.-Flux-Residual
  Residual-Control   Outer-Iter.   Inner-Iter.     Column Row Layer    Max.-Head-Change    Column Row Layer    Max.-Flux-Residual            L2-New               L2-Old           Solver-Max-Delh
          0                 1           3            10    1     1      -0.6125550367E-03      11    1    1      -0.5402353519E+00      0.1415622980E+01      0.2124072836E-01     -0.6125550367E-03
          0                 2           3            10    1     1       0.5142123815E-04      11    1    1       0.5574602121E-01      0.1403563936E+00      0.1415622980E+01      0.5142123815E-04

    ------------------------------------------------
       NWT REQUIRED            2 OUTER ITERATIONS 
       AND A TOTAL OF          6 INNER ITERATIONS.
    ------------------------------------------------
                                                   Max.-Head-Change                        Max.-Flux-Residual
  Residual-Control   Outer-Iter.   Inner-Iter.     Column Row Layer    Max.-Head-Change    Column Row Layer    Max.-Flux-Residual            L2-New               L2-Old           Solver-Max-Delh
          0                 1           3             1    3     1      -0.3359334052E-03       1    3    1      -0.3278031023E+00      0.6777068605E+00      0.1403563936E+00     -0.3359334052E-03
          0                 2           2             1    2     1       0.2875657159E-04       1    2    1       0.2870042284E-01      0.7296154297E-01      0.6777068605E+00      0.2875657159E-04

    ------------------------------------------------
       NWT REQUIRED            2 OUTER ITERATIONS 
       AND A TOTAL OF          5 INNER ITERATIONS.
    ------------------------------------------------
                                                   Max.-Head-Change                        Max.-Flux-Residual
  Residual-Control   Outer-Iter.   Inner-Iter.     Column Row Layer    Max.-Head-Change    Column Row Layer    Max.-Flux-Residual            L2-New               L2-Old           Solver-Max-Delh
          0                 1           3             1    3     1      -0.2041321899E-03       1    3    1      -0.2002862093E+00      0.4170460565E+00      0.7296154297E-01     -0.2041321899E-03
          0                 2           2             1    3     1       0.1832456504E-04       1    3    1       0.2073514357E-01      0.4875766261E-01      0.4170460565E+00      0.1832456504E-04

    ------------------------------------------------
       NWT REQUIRED            2 OUTER ITERATIONS 
       AND A TOTAL OF          5 INNER ITERATIONS.
    ------------------------------------------------
                                                   Max.-Head-Change                        Max.-Flux-Residual
  Residual-Control   Outer-Iter.   Inner-Iter.     Column Row Layer    Max.-Head-Change    Column Row Layer    Max.-Flux-Residual            L2-New               L2-Old           Solver-Max-Delh
          0                 1           3             1    3     1      -0.1051986701E-03       1    3    1      -0.1005229771E+00      0.2347665933E+00      0.4875766261E-01     -0.1051986701E-03
          0                 2           2             4    3     1       0.1047674156E-04       3    3    1       0.9941744094E-02      0.3082030370E-01      0.2347665933E+00      0.1047674156E-04

    ------------------------------------------------
       NWT REQUIRED            2 OUTER ITERATIONS 
       AND A TOTAL OF          5 INNER ITERATIONS.
    ------------------------------------------------
          0                 1           3             3    3     1      -0.5097403794E-04       1    3    1      -0.4314706690E-01      0.1129254870E+00      0.3082030370E-01     -0.5097403794E-04

    ------------------------------------------------
       NWT REQUIRED            1 OUTER ITERATIONS 
       AND A TOTAL OF          3 INNER ITERATIONS.
    ------------------------------------------------

 OUTPUT CONTROL FOR STRESS PERIOD     11   TIME STEP     1
    SAVE BUDGET
 UBDSV1 SAVING "         STORAGE" ON UNIT7012 AT TIME STEP    1, STRESS PERIOD  11
 UBDSV2 SAVING "   CONSTANT HEAD" ON UNIT7012 AT TIME STEP    1, STRESS PERIOD  11
 UBDSV1 SAVING "FLOW RIGHT FACE " ON UNIT7012 AT TIME STEP    1, STRESS PERIOD  11
 UBDSV1 SAVING "FLOW FRONT FACE " ON UNIT7012 AT TIME STEP    1, STRESS PERIOD  11
 UBDSV1 SAVING "FLOW LOWER FACE " ON UNIT7012 AT TIME STEP    1, STRESS PERIOD  11
 UBDSV4 SAVING " GHOST-NODE HEAD" ON UNIT7012 AT TIME STEP    1, STRESS PERIOD  11
1
  FLUX ACROSS PARENT-CHILD INTERFACE AT TIME STEP  1 IN STRESS PERIOD   11
  ------------------------------------------------------------------------
 G-N FLUX        PARENT        CHILD         DIFFERENCE      % DIFFERENCE
  RATE IN:      1.8045E+03    1.8045E+03     3.4546E-02        0.0019
 RATE OUT:      1.7920E+03    1.7920E+03    -1.9043E-02       -0.0011
 
 SOLVING FOR HEAD 
                                                   Max.-Head-Change                        Max.-Flux-Residual
  Residual-Control   Outer-Iter.   Inner-Iter.     Column Row Layer    Max.-Head-Change    Column Row Layer    Max.-Flux-Residual            L2-New               L2-Old           Solver-Max-Delh
          0                 1           5            12    1     2       0.4207204479E-01       1    1    1       0.3174591029E+02      0.7984279810E+02      0.1129254870E+00      0.4207204479E-01
          0                 2           4            12    1     2      -0.3633571937E-02       1    1    1      -0.3157139682E+01      0.7973117299E+01      0.7984279810E+02     -0.3633571937E-02
          0                 3           3            12    1     2      -0.1818371959E-03       1    1    1      -0.1608945950E+00      0.4002564161E+00      0.7973117299E+01     -0.1818371959E-03
          0                 4           2            12    1     1      -0.1151376199E-04      12    1    1      -0.1439754805E-01      0.3113440640E-01      0.4002564161E+00     -0.1151376199E-04

    ------------------------------------------------
       NWT REQUIRED            4 OUTER ITERATIONS 
       AND A TOTAL OF         14 INNER ITERATIONS.
    ------------------------------------------------
                                                   Max.-Head-Change                        Max.-Flux-Residual
  Residual-Control   Outer-Iter.   Inner-Iter.     Column Row Layer    Max.-Head-Change    Column Row Layer    Max.-Flux-Residual            L2-New               L2-Old           Solver-Max-Delh
          0                 1           5             1    1     1       0.1367039958E-01       1    1    1       0.1238716791E+02      0.2333642505E+02      0.3113440640E-01      0.1367039958E-01
          0                 2           4             1    1     1      -0.1174313573E-02       1    1    1      -0.1234269988E+01      0.2322906599E+01      0.2333642505E+02     -0.1174313573E-02
          0                 3           3             1    1     1      -0.5903662122E-04       1    1    1      -0.5980709032E-01      0.1226174028E+00      0.2322906599E+01     -0.5903662122E-04

    ------------------------------------------------
       NWT REQUIRED            3 OUTER ITERATIONS 
       AND A TOTAL OF         12 INNER ITERATIONS.
    ------------------------------------------------
                                                   Max.-Head-Change                        Max.-Flux-Residual
  Residual-Control   Outer-Iter.   Inner-Iter.     Column Row Layer    Max.-Head-Change    Column Row Layer    Max.-Flux-Residual            L2-New               L2-Old           Solver-Max-Delh
          0                 1           4             1    3     1       0.5966858570E-02       1    3    1       0.5147084688E+01      0.9824373281E+01      0.1226174028E+00      0.5966858570E-02
          0                 2           4             1    3     1      -0.5098801224E-03       1    3    1      -0.5101449612E+00      0.9739640360E+00      0.9824373281E+01     -0.5098801224E-03
          0                 3           2             1    1     1      -0.3039397514E-04       1    1    1      -0.3401466657E-01      0.5580073733E-01      0.9739640360E+00     -0.3039397514E-04

    ------------------------------------------------
       NWT REQUIRED            3 OUTER ITERATIONS 
       AND A TOTAL OF         10 INNER ITERATIONS.
    ------------------------------------------------
                                                   Max.-Head-Change                        Max.-Flux-Residual
  Residual-Control   Outer-Iter.   Inner-Iter.     Column Row Layer    Max.-Head-Change    Column Row Layer    Max.-Flux-Residual            L2-New               L2-Old           Solver-Max-Delh
          0                 1           4             1    3     1       0.2776887068E-02       1    3    1       0.2485841881E+01      0.5466881646E+01      0.5580073733E-01      0.2776887068E-02
          0                 2           3             1    3     1      -0.2355021699E-03       1    3    1      -0.2426564141E+00      0.5385023989E+00      0.5466881646E+01     -0.2355021699E-03
          0                 3           2             1    3     1      -0.1205157120E-04       1    3    1      -0.1226526278E-01      0.3114871775E-01      0.5385023989E+00     -0.1205157120E-04

    ------------------------------------------------
       NWT REQUIRED            3 OUTER ITERATIONS 
       AND A TOTAL OF          9 INNER ITERATIONS.
    ------------------------------------------------
                                                   Max.-Head-Change                        Max.-Flux-Residual
  Residual-Control   Outer-Iter.   Inner-Iter.     Column Row Layer    Max.-Head-Change    Column Row Layer    Max.-Flux-Residual            L2-New               L2-Old           Solver-Max-Delh
          0                 1           4             3    3     1       0.1214848023E-02       1    3    1       0.1033589937E+01      0.2961181513E+01      0.3114871775E-01      0.1214848023E-02
          0                 2           3             3    3     1      -0.1058906254E-03       1    3    1      -0.1092252840E+00      0.2973846674E+00      0.2961181513E+01     -0.1058906254E-03
          0                 3           2             1    3     1      -0.7094627705E-05       1    3    1      -0.1199490158E-01      0.2150785907E-01      0.2973846674E+00     -0.7094627705E-05

    ------------------------------------------------
       NWT REQUIRED            3 OUTER ITERATIONS 
       AND A TOTAL OF          9 INNER ITERATIONS.
    ------------------------------------------------
                                                   Max.-Head-Change                        Max.-Flux-Residual
  Residual-Control   Outer-Iter.   Inner-Iter.     Column Row Layer    Max.-Head-Change    Column Row Layer    Max.-Flux-Residual            L2-New               L2-Old           Solver-Max-Delh
          0                 1           3             3    3     1       0.4343663610E-03      10    1    1      -0.3289010336E+00      0.1231096740E+01      0.2150785907E-01      0.4343663610E-03
          0                 2           2             4    3     1      -0.3677369465E-04       7    3    1      -0.3583212767E-01      0.1257528270E+00      0.1231096740E+01     -0.3677369465E-04

    ------------------------------------------------
       NWT REQUIRED            2 OUTER ITERATIONS 
       AND A TOTAL OF          5 INNER ITERATIONS.
    ------------------------------------------------
                                                   Max.-Head-Change                        Max.-Flux-Residual
  Residual-Control   Outer-Iter.   Inner-Iter.     Column Row Layer    Max.-Head-Change    Column Row Layer    Max.-Flux-Residual            L2-New               L2-Old           Solver-Max-Delh
          0                 1           3            10    1     1      -0.1240986836E-03      11    1    1      -0.1408702399E+00      0.3319568779E+00      0.1257528270E+00     -0.1240986836E-03
          0                 2           2             9    1     1       0.8652937064E-05      11    1    1       0.1045009168E-01      0.3265365556E-01      0.3319568779E+00      0.8652937064E-05

    ------------------------------------------------
       NWT REQUIRED            2 OUTER ITERATIONS 
       AND A TOTAL OF          5 INNER ITERATIONS.
    ------------------------------------------------
          0                 1           3             8    3     2      -0.7170372737E-04       1    3    1      -0.4554377648E-01      0.1332297572E+00      0.3265365556E-01     -0.7170372737E-04

    ------------------------------------------------
       NWT REQUIRED            1 OUTER ITERATIONS 
       AND A TOTAL OF          3 INNER ITERATIONS.
    ------------------------------------------------
          0                 1           3             8    3     2      -0.7532498662E-04       1    3    1      -0.5552261311E-01      0.1385320629E+00      0.1332297572E+00     -0.7532498662E-04

    ------------------------------------------------
       NWT REQUIRED            1 OUTER ITERATIONS 
       AND A TOTAL OF          3 INNER ITERATIONS.
    ------------------------------------------------
          0                 1           2             1    3     1      -0.3297364401E-04       1    3    1      -0.3226852801E-01      0.8393378787E-01      0.1385320629E+00     -0.3297364401E-04

    ------------------------------------------------
       NWT REQUIRED            1 OUTER ITERATIONS 
       AND A TOTAL OF          2 INNER ITERATIONS.
    ------------------------------------------------

 OUTPUT CONTROL FOR STRESS PERIOD     11   TIME STEP     2
    SAVE BUDGET
 UBDSV1 SAVING "         STORAGE" ON UNIT7012 AT TIME STEP    2, STRESS PERIOD  11
 UBDSV2 SAVING "   CONSTANT HEAD" ON UNIT7012 AT TIME STEP    2, STRESS PERIOD  11
 UBDSV1 SAVING "FLOW RIGHT FACE " ON UNIT7012 AT TIME STEP    2, STRESS PERIOD  11
 UBDSV1 SAVING "FLOW FRONT FACE " ON UNIT7012 AT TIME STEP    2, STRESS PERIOD  11
 UBDSV1 SAVING "FLOW LOWER FACE " ON UNIT7012 AT TIME STEP    2, STRESS PERIOD  11
 UBDSV4 SAVING " GHOST-NODE HEAD" ON UNIT7012 AT TIME STEP    2, STRESS PERIOD  11
1
  VOLUMETRIC BUDGET FOR ENTIRE MODEL AT END OF TIME STEP    2 IN STRESS PERIOD     11
  ------------------------------------------------------------------------------

     CUMULATIVE VOLUMES      L**3       RATES FOR THIS TIME STEP      L**3/T
     ------------------                 ------------------------

           IN:                                      IN:
           ---                                      ---
             STORAGE =       25658.8125               STORAGE =       2.7297E-02
       CONSTANT HEAD =           0.0000         CONSTANT HEAD =           0.0000
     GHOST-NODE HEAD =     2048017.8750       GHOST-NODE HEAD =        1875.7444

            TOTAL IN =     2073676.7500              TOTAL IN =        1875.7717

          OUT:                                     OUT:
          ----                                     ----
             STORAGE =     1609591.3750               STORAGE =          43.7933
       CONSTANT HEAD =           0.0000         CONSTANT HEAD =           0.0000
     GHOST-NODE HEAD =      464085.1562       GHOST-NODE HEAD =        1831.9606

           TOTAL OUT =     2073676.5000             TOTAL OUT =        1875.7538

            IN - OUT =           0.2500              IN - OUT =       1.7944E-02

 PERCENT DISCREPANCY =           0.00     PERCENT DISCREPANCY =           0.00






          TIME SUMMARY AT END OF TIME STEP     2 IN STRESS PERIOD     11
                    SECONDS     MINUTES      HOURS       DAYS        YEARS
                    -----------------------------------------------------------
   TIME STEP LENGTH 1.31414E+06  21902.      365.04      15.210     4.16427E-02
 STRESS PERIOD TIME 2.62829E+06  43805.      730.08      30.420     8.32854E-02
         TOTAL TIME 2.89112E+07 4.81853E+05  8030.9      334.62     0.91614    
1
1
  FLUX ACROSS PARENT-CHILD INTERFACE AT TIME STEP  2 IN STRESS PERIOD   11
  ------------------------------------------------------------------------
 G-N FLUX        PARENT        CHILD         DIFFERENCE      % DIFFERENCE
  RATE IN:      1.8756E+03    1.8757E+03    -1.0571E-01       -0.0056
 RATE OUT:      1.8319E+03    1.8320E+03    -1.1353E-02       -0.0006
1
                            STRESS PERIOD NO.     12, LENGTH =   30.42000    
                            -----------------------------------------------

                              NUMBER OF TIME STEPS =     2

                               MULTIPLIER FOR DELT =     1.000

                            INITIAL TIME STEP SIZE =   15.21000    
 
 SOLVING FOR HEAD 
                                                   Max.-Head-Change                        Max.-Flux-Residual
  Residual-Control   Outer-Iter.   Inner-Iter.     Column Row Layer    Max.-Head-Change    Column Row Layer    Max.-Flux-Residual            L2-New               L2-Old           Solver-Max-Delh
          0                 1           6            12    1     1       0.1238080101E+00      12    1    1       0.9775362992E+02      0.2772811059E+03      0.8393378787E-01      0.1238080101E+00
          0                 2           5            12    1     1      -0.1075530677E-01      12    1    1      -0.9841797823E+01      0.2775673154E+02      0.2772811059E+03     -0.1075530677E-01
          0                 3           4            12    1     1      -0.5340019686E-03      12    1    1      -0.4921086722E+00      0.1385031641E+01      0.2775673154E+02     -0.5340019686E-03
          0                 4           2            12    3     1      -0.3163945639E-04      12    3    1      -0.3474913453E-01      0.7400493996E-01      0.1385031641E+01     -0.3163945639E-04

    ------------------------------------------------
       NWT REQUIRED            4 OUTER ITERATIONS 
       AND A TOTAL OF         17 INNER ITERATIONS.
    ------------------------------------------------
                                                   Max.-Head-Change                        Max.-Flux-Residual
  Residual-Control   Outer-Iter.   Inner-Iter.     Column Row Layer    Max.-Head-Change    Column Row Layer    Max.-Flux-Residual            L2-New               L2-Old           Solver-Max-Delh
          0                 1           6            12    1     1       0.5705831302E-01      12    1    1       0.4509875803E+02      0.1291613916E+03      0.7400493996E-01      0.5705831302E-01
          0                 2           4            12    3     1      -0.4957217067E-02      12    1    1      -0.4533295357E+01      0.1291894591E+02      0.1291613916E+03     -0.4957217067E-02
          0                 3           3            12    1     1      -0.2464626549E-03      12    1    1      -0.2287497056E+00      0.6492202077E+00      0.1291894591E+02     -0.2464626549E-03
          0                 4           2            12    3     1      -0.1652278848E-04      12    3    1      -0.1860743007E-01      0.3670815407E-01      0.6492202077E+00     -0.1652278848E-04

    ------------------------------------------------
       NWT REQUIRED            4 OUTER ITERATIONS 
       AND A TOTAL OF         15 INNER ITERATIONS.
    ------------------------------------------------
                                                   Max.-Head-Change                        Max.-Flux-Residual
  Residual-Control   Outer-Iter.   Inner-Iter.     Column Row Layer    Max.-Head-Change    Column Row Layer    Max.-Flux-Residual            L2-New               L2-Old           Solver-Max-Delh
          0                 1           5            12    1     1       0.2578074109E-01      12    1    1       0.2031765881E+02      0.5862573925E+02      0.3670815407E-01      0.2578074109E-01
          0                 2           4            12    3     1      -0.2239354173E-02      12    1    1      -0.2039718506E+01      0.5856953114E+01      0.5862573925E+02     -0.2239354173E-02
          0                 3           3            12    3     1      -0.1132482939E-03      12    3    1      -0.1065601663E+00      0.2934557181E+00      0.5856953114E+01     -0.1132482939E-03
          0                 4           2             1    3     1      -0.9818046880E-05       1    1    1      -0.1149965159E-01      0.2601383582E-01      0.2934557181E+00     -0.9818046880E-05

    ------------------------------------------------
       NWT REQUIRED            4 OUTER ITERATIONS 
       AND A TOTAL OF         14 INNER ITERATIONS.
    ------------------------------------------------
                                                   Max.-Head-Change                        Max.-Flux-Residual
  Residual-Control   Outer-Iter.   Inner-Iter.     Column Row Layer    Max.-Head-Change    Column Row Layer    Max.-Flux-Residual            L2-New               L2-Old           Solver-Max-Delh
          0                 1           5            12    1     2       0.1099048450E-01      12    1    1       0.8529662966E+01      0.2479498427E+02      0.2601383582E-01      0.1099048450E-01
          0                 2           4            12    1     2      -0.9496767358E-03      12    1    1      -0.8611853210E+00      0.2481122095E+01      0.2479498427E+02     -0.9496767358E-03
          0                 3           3             1    3     1      -0.5006998788E-04       1    3    1      -0.5375554413E-01      0.1261939551E+00      0.2481122095E+01     -0.5006998788E-04

    ------------------------------------------------
       NWT REQUIRED            3 OUTER ITERATIONS 
       AND A TOTAL OF         12 INNER ITERATIONS.
    ------------------------------------------------
                                                   Max.-Head-Change                        Max.-Flux-Residual
  Residual-Control   Outer-Iter.   Inner-Iter.     Column Row Layer    Max.-Head-Change    Column Row Layer    Max.-Flux-Residual            L2-New               L2-Old           Solver-Max-Delh
          0                 1           4            12    1     2       0.4405078516E-02       1    3    1       0.3275097498E+01      0.9468144060E+01      0.1261939551E+00      0.4405078516E-02
          0                 2           3            12    1     2      -0.3805242874E-03      12    1    1      -0.3326859144E+00      0.9537163171E+00      0.9468144060E+01     -0.3805242874E-03
          0                 3           2             1    1     1      -0.1979803601E-04       1    1    1      -0.1940012805E-01      0.5033476561E-01      0.9537163171E+00     -0.1979803601E-04

    ------------------------------------------------
       NWT REQUIRED            3 OUTER ITERATIONS 
       AND A TOTAL OF          9 INNER ITERATIONS.
    ------------------------------------------------
                                                   Max.-Head-Change                        Max.-Flux-Residual
  Residual-Control   Outer-Iter.   Inner-Iter.     Column Row Layer    Max.-Head-Change    Column Row Layer    Max.-Flux-Residual            L2-New               L2-Old           Solver-Max-Delh
          0                 1           4            12    1     2       0.1572162274E-02       1    3    1       0.1103903442E+01      0.3019474684E+01      0.5033476561E-01      0.1572162274E-02
          0                 2           3            12    1     2      -0.1355733895E-03       1    3    1      -0.1097218622E+00      0.3002723851E+00      0.3019474684E+01     -0.1355733895E-03
          0                 3           2            10    3     1      -0.6795987176E-05      10    3    1      -0.7713550818E-02      0.2238578449E-01      0.3002723851E+00     -0.6795987176E-05

    ------------------------------------------------
       NWT REQUIRED            3 OUTER ITERATIONS 
       AND A TOTAL OF          9 INNER ITERATIONS.
    ------------------------------------------------
                                                   Max.-Head-Change                        Max.-Flux-Residual
  Residual-Control   Outer-Iter.   Inner-Iter.     Column Row Layer    Max.-Head-Change    Column Row Layer    Max.-Flux-Residual            L2-New               L2-Old           Solver-Max-Delh
          0                 1           3             1    3     2       0.4535725125E-03       1    3    1       0.2442730766E+00      0.5931692378E+00      0.2238578449E-01      0.4535725125E-03
          0                 2           2             1    3     2      -0.3922873384E-04       1    1    1      -0.2236488473E-01      0.6386881470E-01      0.5931692378E+00     -0.3922873384E-04

    ------------------------------------------------
       NWT REQUIRED            2 OUTER ITERATIONS 
       AND A TOTAL OF          5 INNER ITERATIONS.
    ------------------------------------------------
                                                   Max.-Head-Change                        Max.-Flux-Residual
  Residual-Control   Outer-Iter.   Inner-Iter.     Column Row Layer    Max.-Head-Change    Column Row Layer    Max.-Flux-Residual            L2-New               L2-Old           Solver-Max-Delh
          0                 1           3             7    3     1      -0.1257701670E-03       4    3    1      -0.7657181902E-01      0.2538721249E+00      0.6386881470E-01     -0.1257701670E-03
          0                 2           2             4    3     1       0.1242171050E-04      12    1    1       0.1347820467E-01      0.3523798710E-01      0.2538721249E+00      0.1242171050E-04

    ------------------------------------------------
       NWT REQUIRED            2 OUTER ITERATIONS 
       AND A TOTAL OF          5 INNER ITERATIONS.
    ------------------------------------------------
                                                   Max.-Head-Change                        Max.-Flux-Residual
  Residual-Control   Outer-Iter.   Inner-Iter.     Column Row Layer    Max.-Head-Change    Column Row Layer    Max.-Flux-Residual            L2-New               L2-Old           Solver-Max-Delh
          0                 1           3             8    3     1      -0.1526454504E-03      12    1    1      -0.1219863138E+00      0.3507849936E+00      0.3523798710E-01     -0.1526454504E-03
          0                 2           2             8    3     1       0.1593008387E-04       1    3    1       0.1973935065E-01      0.4332826109E-01      0.3507849936E+00      0.1593008387E-04

    ------------------------------------------------
       NWT REQUIRED            2 OUTER ITERATIONS 
       AND A TOTAL OF          5 INNER ITERATIONS.
    ------------------------------------------------
                                                   Max.-Head-Change                        Max.-Flux-Residual
  Residual-Control   Outer-Iter.   Inner-Iter.     Column Row Layer    Max.-Head-Change    Column Row Layer    Max.-Flux-Residual            L2-New               L2-Old           Solver-Max-Delh
          0                 1           3            12    3     1      -0.1188570195E-03       1    1    1      -0.9779206151E-01      0.2860603376E+00      0.4332826109E-01     -0.1188570195E-03
          0                 2           2             4    1     1       0.1355287699E-04       1    1    1       0.1192046807E-01      0.3258012640E-01      0.2860603376E+00      0.1355287699E-04

    ------------------------------------------------
       NWT REQUIRED            2 OUTER ITERATIONS 
       AND A TOTAL OF          5 INNER ITERATIONS.
    ------------------------------------------------
          0                 1           3            12    3     1      -0.7511906251E-04      12    3    1      -0.6162943947E-01      0.1682537049E+00      0.3258012640E-01     -0.7511906251E-04

    ------------------------------------------------
       NWT REQUIRED            1 OUTER ITERATIONS 
       AND A TOTAL OF          3 INNER ITERATIONS.
    ------------------------------------------------

 OUTPUT CONTROL FOR STRESS PERIOD     12   TIME STEP     1
    SAVE BUDGET
 UBDSV1 SAVING "         STORAGE" ON UNIT7012 AT TIME STEP    1, STRESS PERIOD  12
 UBDSV2 SAVING "   CONSTANT HEAD" ON UNIT7012 AT TIME STEP    1, STRESS PERIOD  12
 UBDSV1 SAVING "FLOW RIGHT FACE " ON UNIT7012 AT TIME STEP    1, STRESS PERIOD  12
 UBDSV1 SAVING "FLOW FRONT FACE " ON UNIT7012 AT TIME STEP    1, STRESS PERIOD  12
 UBDSV1 SAVING "FLOW LOWER FACE " ON UNIT7012 AT TIME STEP    1, STRESS PERIOD  12
 UBDSV4 SAVING " GHOST-NODE HEAD" ON UNIT7012 AT TIME STEP    1, STRESS PERIOD  12
1
  FLUX ACROSS PARENT-CHILD INTERFACE AT TIME STEP  1 IN STRESS PERIOD   12
  ------------------------------------------------------------------------
 G-N FLUX        PARENT        CHILD         DIFFERENCE      % DIFFERENCE
  RATE IN:      1.9749E+03    1.9752E+03    -2.3572E-01       -0.0119
 RATE OUT:      1.7207E+03    1.7205E+03     2.0801E-01        0.0121
 
 SOLVING FOR HEAD 
                                                   Max.-Head-Change                        Max.-Flux-Residual
  Residual-Control   Outer-Iter.   Inner-Iter.     Column Row Layer    Max.-Head-Change    Column Row Layer    Max.-Flux-Residual            L2-New               L2-Old           Solver-Max-Delh
          0                 1           6            12    3     1       0.1151601974E+00      12    3    1       0.8866639265E+02      0.2474429381E+03      0.1682537049E+00      0.1151601974E+00
          0                 2           5            12    3     1      -0.1002471894E-01      12    3    1      -0.8954172802E+01      0.2476416443E+02      0.2474429381E+03     -0.1002471894E-01
          0                 3           4            12    3     1      -0.4957534647E-03      12    3    1      -0.4448997948E+00      0.1240804690E+01      0.2476416443E+02     -0.4957534647E-03
          0                 4           2            11    3     1      -0.2691741862E-04      12    3    1      -0.1876302733E-01      0.6120377513E-01      0.1240804690E+01     -0.2691741862E-04

    ------------------------------------------------
       NWT REQUIRED            4 OUTER ITERATIONS 
       AND A TOTAL OF         17 INNER ITERATIONS.
    ------------------------------------------------
                                                   Max.-Head-Change                        Max.-Flux-Residual
  Residual-Control   Outer-Iter.   Inner-Iter.     Column Row Layer    Max.-Head-Change    Column Row Layer    Max.-Flux-Residual            L2-New               L2-Old           Solver-Max-Delh
          0                 1           5            12    3     2       0.5188667005E-01      12    3    1       0.4062175271E+02      0.1109119037E+03      0.6120377513E-01      0.5188667005E-01
          0                 2           4            12    3     2      -0.4484006635E-02      12    3    1      -0.4102381756E+01      0.1109837312E+02      0.1109119037E+03     -0.4484006635E-02
          0                 3           3            12    3     2      -0.2243954623E-03      12    3    1      -0.1985300563E+00      0.5554214990E+00      0.1109837312E+02     -0.2243954623E-03
          0                 4           2            12    2     1      -0.1298833467E-04       1    3    1      -0.1116370561E-01      0.3299043090E-01      0.5554214990E+00     -0.1298833467E-04

    ------------------------------------------------
       NWT REQUIRED            4 OUTER ITERATIONS 
       AND A TOTAL OF         14 INNER ITERATIONS.
    ------------------------------------------------
                                                   Max.-Head-Change                        Max.-Flux-Residual
  Residual-Control   Outer-Iter.   Inner-Iter.     Column Row Layer    Max.-Head-Change    Column Row Layer    Max.-Flux-Residual            L2-New               L2-Old           Solver-Max-Delh
          0                 1           5            12    3     2       0.2490691661E-01      12    3    1       0.1897653176E+02      0.5509476316E+02      0.3299043090E-01      0.2490691661E-01
          0                 2           4            12    3     2      -0.2152302418E-02      12    3    1      -0.1908153578E+01      0.5512253015E+01      0.5509476316E+02     -0.2152302418E-02
          0                 3           3            12    3     2      -0.1072687001E-03       1    1    1      -0.9350241849E-01      0.2748759880E+00      0.5512253015E+01     -0.1072687001E-03
          0                 4           2             9    3     1      -0.9361713378E-05       9    3    1      -0.7286517706E-02      0.2380823048E-01      0.2748759880E+00     -0.9361713378E-05

    ------------------------------------------------
       NWT REQUIRED            4 OUTER ITERATIONS 
       AND A TOTAL OF         14 INNER ITERATIONS.
    ------------------------------------------------
                                                   Max.-Head-Change                        Max.-Flux-Residual
  Residual-Control   Outer-Iter.   Inner-Iter.     Column Row Layer    Max.-Head-Change    Column Row Layer    Max.-Flux-Residual            L2-New               L2-Old           Solver-Max-Delh
          0                 1           5            12    1     2       0.1161607628E-01      12    1    1       0.8852605656E+01      0.2606714600E+02      0.2380823048E-01      0.1161607628E-01
          0                 2           4            12    1     2      -0.1003372648E-02      12    1    1      -0.8883034705E+00      0.2602095250E+01      0.2606714600E+02     -0.1003372648E-02
          0                 3           3             1    1     1      -0.5238502054E-04       1    1    1      -0.5255235918E-01      0.1347494955E+00      0.2602095250E+01     -0.5238502054E-04

    ------------------------------------------------
       NWT REQUIRED            3 OUTER ITERATIONS 
       AND A TOTAL OF         12 INNER ITERATIONS.
    ------------------------------------------------
                                                   Max.-Head-Change                        Max.-Flux-Residual
  Residual-Control   Outer-Iter.   Inner-Iter.     Column Row Layer    Max.-Head-Change    Column Row Layer    Max.-Flux-Residual            L2-New               L2-Old           Solver-Max-Delh
          0                 1           4            11    1     2       0.5322723540E-02      12    1    1       0.4082044613E+01      0.1165551170E+02      0.1347494955E+00      0.5322723540E-02
          0                 2           4            11    1     2      -0.4589532050E-03      12    1    1      -0.4056163732E+00      0.1164302984E+01      0.1165551170E+02     -0.4589532050E-03
          0                 3           2            12    1     2      -0.2250598945E-04      12    1    1      -0.1988364209E-01      0.5549892778E-01      0.1164302984E+01     -0.2250598945E-04

    ------------------------------------------------
       NWT REQUIRED            3 OUTER ITERATIONS 
       AND A TOTAL OF         10 INNER ITERATIONS.
    ------------------------------------------------
                                                   Max.-Head-Change                        Max.-Flux-Residual
  Residual-Control   Outer-Iter.   Inner-Iter.     Column Row Layer    Max.-Head-Change    Column Row Layer    Max.-Flux-Residual            L2-New               L2-Old           Solver-Max-Delh
          0                 1           4            11    1     2       0.2289030603E-02      12    1    1       0.1735422146E+01      0.4846539726E+01      0.5549892778E-01      0.2289030603E-02
          0                 2           3            11    1     2      -0.1973755058E-03      12    1    1      -0.1716925066E+00      0.4836322898E+00      0.4846539726E+01     -0.1973755058E-03
          0                 3           2            12    1     1      -0.1283248663E-04      12    1    1      -0.1253758592E-01      0.3202330089E-01      0.4836322898E+00     -0.1283248663E-04

    ------------------------------------------------
       NWT REQUIRED            3 OUTER ITERATIONS 
       AND A TOTAL OF          9 INNER ITERATIONS.
    ------------------------------------------------
                                                   Max.-Head-Change                        Max.-Flux-Residual
  Residual-Control   Outer-Iter.   Inner-Iter.     Column Row Layer    Max.-Head-Change    Column Row Layer    Max.-Flux-Residual            L2-New               L2-Old           Solver-Max-Delh
          0                 1           4            11    1     2       0.8820513814E-03      12    1    1       0.6640356276E+00      0.1811068180E+01      0.3202330089E-01      0.8820513814E-03
          0                 2           3            11    1     2      -0.7568375054E-04       1    1    1      -0.6581276690E-01      0.1805516678E+00      0.1811068180E+01     -0.7568375054E-04

    ------------------------------------------------
       NWT REQUIRED            2 OUTER ITERATIONS 
       AND A TOTAL OF          7 INNER ITERATIONS.
    ------------------------------------------------
                                                   Max.-Head-Change                        Max.-Flux-Residual
  Residual-Control   Outer-Iter.   Inner-Iter.     Column Row Layer    Max.-Head-Change    Column Row Layer    Max.-Flux-Residual            L2-New               L2-Old           Solver-Max-Delh
          0                 1           3            12    1     2       0.2928210245E-03      12    1    1       0.2092706974E+00      0.5391371231E+00      0.1805516678E+00      0.2928210245E-03
          0                 2           2            12    1     2      -0.2510027492E-04      12    1    1      -0.2280967502E-01      0.5639151365E-01      0.5391371231E+00     -0.2510027492E-04

    ------------------------------------------------
       NWT REQUIRED            2 OUTER ITERATIONS 
       AND A TOTAL OF          5 INNER ITERATIONS.
    ------------------------------------------------
          0                 1           3             1    3     2       0.9613930218E-04      12    1    1       0.3727616463E-01      0.9221472263E-01      0.5639151365E-01      0.9613930218E-04

    ------------------------------------------------
       NWT REQUIRED            1 OUTER ITERATIONS 
       AND A TOTAL OF          3 INNER ITERATIONS.
    ------------------------------------------------
          0                 1           3            12    1     1      -0.4481601524E-04      12    1    1      -0.4343111970E-01      0.9763691673E-01      0.9221472263E-01     -0.4481601524E-04

    ------------------------------------------------
       NWT REQUIRED            1 OUTER ITERATIONS 
       AND A TOTAL OF          3 INNER ITERATIONS.
    ------------------------------------------------
          0                 1           2             2    1     1      -0.4124380201E-04       1    1    1      -0.3180031932E-01      0.8165839976E-01      0.9763691673E-01     -0.4124380201E-04

    ------------------------------------------------
       NWT REQUIRED            1 OUTER ITERATIONS 
       AND A TOTAL OF          2 INNER ITERATIONS.
    ------------------------------------------------

 OUTPUT CONTROL FOR STRESS PERIOD     12   TIME STEP     2
    PRINT BUDGET
    SAVE HEAD FOR ALL LAYERS
    SAVE BUDGET
 UBDSV1 SAVING "         STORAGE" ON UNIT7012 AT TIME STEP    2, STRESS PERIOD  12
 UBDSV2 SAVING "   CONSTANT HEAD" ON UNIT7012 AT TIME STEP    2, STRESS PERIOD  12
 UBDSV1 SAVING "FLOW RIGHT FACE " ON UNIT7012 AT TIME STEP    2, STRESS PERIOD  12
 UBDSV1 SAVING "FLOW FRONT FACE " ON UNIT7012 AT TIME STEP    2, STRESS PERIOD  12
 UBDSV1 SAVING "FLOW LOWER FACE " ON UNIT7012 AT TIME STEP    2, STRESS PERIOD  12
 UBDSV4 SAVING " GHOST-NODE HEAD" ON UNIT7012 AT TIME STEP    2, STRESS PERIOD  12

 HEAD WILL BE SAVED ON UNIT 2212 AT END OF TIME STEP     2, STRESS PERIOD     12
1
  VOLUMETRIC BUDGET FOR ENTIRE MODEL AT END OF TIME STEP    2 IN STRESS PERIOD     12
  ------------------------------------------------------------------------------

     CUMULATIVE VOLUMES      L**3       RATES FOR THIS TIME STEP      L**3/T
     ------------------                 ------------------------

           IN:                                      IN:
           ---                                      ---
             STORAGE =       25658.8125               STORAGE =           0.0000
       CONSTANT HEAD =           0.0000         CONSTANT HEAD =           0.0000
     GHOST-NODE HEAD =     2107620.0000       GHOST-NODE HEAD =        1943.4353

            TOTAL IN =     2133278.7500              TOTAL IN =        1943.4353

          OUT:                                     OUT:
          ----                                     ----
             STORAGE =     1617181.1250               STORAGE =         244.4270
       CONSTANT HEAD =           0.0000         CONSTANT HEAD =           0.0000
     GHOST-NODE HEAD =      516095.5000       GHOST-NODE HEAD =        1698.9755

           TOTAL OUT =     2133276.5000             TOTAL OUT =        1943.4025

            IN - OUT =           2.2500              IN - OUT =       3.2837E-02

 PERCENT DISCREPANCY =           0.00     PERCENT DISCREPANCY =           0.00






          TIME SUMMARY AT END OF TIME STEP     2 IN STRESS PERIOD     12
                    SECONDS     MINUTES      HOURS       DAYS        YEARS
                    -----------------------------------------------------------
   TIME STEP LENGTH 1.31414E+06  21902.      365.04      15.210     4.16427E-02
 STRESS PERIOD TIME 2.62829E+06  43805.      730.08      30.420     8.32854E-02
         TOTAL TIME 3.15395E+07 5.25658E+05  8761.0      365.04     0.99942    
1
1
  FLUX ACROSS PARENT-CHILD INTERFACE AT TIME STEP  2 IN STRESS PERIOD   12
  ------------------------------------------------------------------------
 G-N FLUX        PARENT        CHILD         DIFFERENCE      % DIFFERENCE
  RATE IN:      1.9432E+03    1.9434E+03    -2.1753E-01       -0.0112
 RATE OUT:      1.6992E+03    1.6990E+03     2.3352E-01        0.0137
1
                            STRESS PERIOD NO.     13, LENGTH =   30.42000    
                            -----------------------------------------------

                              NUMBER OF TIME STEPS =     2

                               MULTIPLIER FOR DELT =     1.000

                            INITIAL TIME STEP SIZE =   15.21000    
 
 SOLVING FOR HEAD 
                                                   Max.-Head-Change                        Max.-Flux-Residual
  Residual-Control   Outer-Iter.   Inner-Iter.     Column Row Layer    Max.-Head-Change    Column Row Layer    Max.-Flux-Residual            L2-New               L2-Old           Solver-Max-Delh
          0                 1           6            12    3     4       0.9692846941E-01      12    3    1       0.6887871007E+02      0.1727975273E+03      0.8165839976E-01      0.9692846941E-01
          0                 2           5            12    3     4      -0.8370794795E-02      12    3    1      -0.6950029716E+01      0.1730074322E+02      0.1727975273E+03     -0.8370794795E-02
          0                 3           3            12    3     4      -0.4184188869E-03      12    3    1      -0.3434849469E+00      0.8685438852E+00      0.1730074322E+02     -0.4184188869E-03
          0                 4           2            12    3     4      -0.2129518375E-04       1    3    1      -0.2349389921E-01      0.4587024698E-01      0.8685438852E+00     -0.2129518375E-04

    ------------------------------------------------
       NWT REQUIRED            4 OUTER ITERATIONS 
       AND A TOTAL OF         16 INNER ITERATIONS.
    ------------------------------------------------
                                                   Max.-Head-Change                        Max.-Flux-Residual
  Residual-Control   Outer-Iter.   Inner-Iter.     Column Row Layer    Max.-Head-Change    Column Row Layer    Max.-Flux-Residual            L2-New               L2-Old           Solver-Max-Delh
          0                 1           5            12    3     3       0.4413777275E-01      12    3    1       0.3062845285E+02      0.7571711765E+02      0.4587024698E-01      0.4413777275E-01
          0                 2           4            12    3     3      -0.3810341971E-02      12    3    1      -0.3081211958E+01      0.7572410514E+01      0.7571711765E+02     -0.3810341971E-02
          0                 3           3            12    3     3      -0.1910243766E-03      12    3    1      -0.1604645790E+00      0.3814260431E+00      0.7572410514E+01     -0.1910243766E-03
          0                 4           2            12    1     1      -0.1127526304E-04      12    1    1      -0.1346570661E-01      0.3215050771E-01      0.3814260431E+00     -0.1127526304E-04

    ------------------------------------------------
       NWT REQUIRED            4 OUTER ITERATIONS 
       AND A TOTAL OF         14 INNER ITERATIONS.
    ------------------------------------------------
                                                   Max.-Head-Change                        Max.-Flux-Residual
  Residual-Control   Outer-Iter.   Inner-Iter.     Column Row Layer    Max.-Head-Change    Column Row Layer    Max.-Flux-Residual            L2-New               L2-Old           Solver-Max-Delh
          0                 1           5            12    3     3       0.2110542385E-01      12    3    1       0.1384011032E+02      0.3866406780E+02      0.3215050771E-01      0.2110542385E-01
          0                 2           4            12    3     3      -0.1821974636E-02      12    3    1      -0.1402472783E+01      0.3871541104E+01      0.3866406780E+02     -0.1821974636E-02
          0                 3           3            12    3     3      -0.9136567498E-04       1    3    1      -0.6942937756E-01      0.1921839611E+00      0.3871541104E+01     -0.9136567498E-04

    ------------------------------------------------
       NWT REQUIRED            3 OUTER ITERATIONS 
       AND A TOTAL OF         12 INNER ITERATIONS.
    ------------------------------------------------
                                                   Max.-Head-Change                        Max.-Flux-Residual
  Residual-Control   Outer-Iter.   Inner-Iter.     Column Row Layer    Max.-Head-Change    Column Row Layer    Max.-Flux-Residual            L2-New               L2-Old           Solver-Max-Delh
          0                 1           5            12    1     3       0.9934313178E-02       1    1    1       0.6636736686E+01      0.1927759511E+02      0.1921839611E+00      0.9934313178E-02
          0                 2           4            12    1     3      -0.8574394439E-03      12    1    1      -0.6614614950E+00      0.1928821012E+01      0.1927759511E+02     -0.8574394439E-03
          0                 3           3            12    1     3      -0.4309323070E-04      12    1    1      -0.3841376642E-01      0.9916965077E-01      0.1928821012E+01     -0.4309323070E-04

    ------------------------------------------------
       NWT REQUIRED            3 OUTER ITERATIONS 
       AND A TOTAL OF         12 INNER ITERATIONS.
    ------------------------------------------------
                                                   Max.-Head-Change                        Max.-Flux-Residual
  Residual-Control   Outer-Iter.   Inner-Iter.     Column Row Layer    Max.-Head-Change    Column Row Layer    Max.-Flux-Residual            L2-New               L2-Old           Solver-Max-Delh
          0                 1           4            10    1     2       0.4598202053E-02      12    1    1       0.3181078729E+01      0.9321134589E+01      0.9916965077E-01      0.4598202053E-02
          0                 2           3            10    1     2      -0.3957108339E-03      12    1    1      -0.3165319398E+00      0.9312145163E+00      0.9321134589E+01     -0.3957108339E-03
          0                 3           2            12    1     1      -0.2013410298E-04      12    1    1      -0.2280617098E-01      0.4774822473E-01      0.9312145163E+00     -0.2013410298E-04

    ------------------------------------------------
       NWT REQUIRED            3 OUTER ITERATIONS 
       AND A TOTAL OF          9 INNER ITERATIONS.
    ------------------------------------------------
                                                   Max.-Head-Change                        Max.-Flux-Residual
  Residual-Control   Outer-Iter.   Inner-Iter.     Column Row Layer    Max.-Head-Change    Column Row Layer    Max.-Flux-Residual            L2-New               L2-Old           Solver-Max-Delh
          0                 1           4             9    1     2       0.2074794060E-02      12    1    1       0.1411537088E+01      0.4226797144E+01      0.4774822473E-01      0.2074794060E-02
          0                 2           3             9    1     2      -0.1785485752E-03      12    1    1      -0.1435849105E+00      0.4260083560E+00      0.4226797144E+01     -0.1785485752E-03
          0                 3           2            12    1     1      -0.1074169053E-04      12    1    1      -0.1192690199E-01      0.2659249219E-01      0.4260083560E+00     -0.1074169053E-04

    ------------------------------------------------
       NWT REQUIRED            3 OUTER ITERATIONS 
       AND A TOTAL OF          9 INNER ITERATIONS.
    ------------------------------------------------
                                                   Max.-Head-Change                        Max.-Flux-Residual
  Residual-Control   Outer-Iter.   Inner-Iter.     Column Row Layer    Max.-Head-Change    Column Row Layer    Max.-Flux-Residual            L2-New               L2-Old           Solver-Max-Delh
          0                 1           4             9    1     1       0.8604526640E-03      12    1    1       0.5783367486E+00      0.1767890752E+01      0.2659249219E-01      0.8604526640E-03
          0                 2           3             8    1     1      -0.7503903389E-04      12    1    1      -0.6031302206E-01      0.1808123496E+00      0.1767890752E+01     -0.7503903389E-04

    ------------------------------------------------
       NWT REQUIRED            2 OUTER ITERATIONS 
       AND A TOTAL OF          7 INNER ITERATIONS.
    ------------------------------------------------
                                                   Max.-Head-Change                        Max.-Flux-Residual
  Residual-Control   Outer-Iter.   Inner-Iter.     Column Row Layer    Max.-Head-Change    Column Row Layer    Max.-Flux-Residual            L2-New               L2-Old           Solver-Max-Delh
          0                 1           3            10    1     1       0.3137638505E-03      12    1    1       0.2112474417E+00      0.6516872608E+00      0.1808123496E+00      0.3137638505E-03
          0                 2           2            11    1     1      -0.2735191290E-04      12    1    1      -0.2310250024E-01      0.6663487066E-01      0.6516872608E+00     -0.2735191290E-04

    ------------------------------------------------
       NWT REQUIRED            2 OUTER ITERATIONS 
       AND A TOTAL OF          5 INNER ITERATIONS.
    ------------------------------------------------
          0                 1           3             6    3     1       0.9492141965E-04       1    3    1       0.7476479467E-01      0.2000274020E+00      0.6663487066E-01      0.9492141965E-04

    ------------------------------------------------
       NWT REQUIRED            1 OUTER ITERATIONS 
       AND A TOTAL OF          3 INNER ITERATIONS.
    ------------------------------------------------
          0                 1           2             7    1     4      -0.3980477506E-04       5    1    1      -0.1935762318E-01      0.6379312312E-01      0.2000274020E+00     -0.3980477506E-04

    ------------------------------------------------
       NWT REQUIRED            1 OUTER ITERATIONS 
       AND A TOTAL OF          2 INNER ITERATIONS.
    ------------------------------------------------

 OUTPUT CONTROL FOR STRESS PERIOD     13   TIME STEP     1
    SAVE BUDGET
 UBDSV1 SAVING "         STORAGE" ON UNIT7012 AT TIME STEP    1, STRESS PERIOD  13
 UBDSV2 SAVING "   CONSTANT HEAD" ON UNIT7012 AT TIME STEP    1, STRESS PERIOD  13
 UBDSV1 SAVING "FLOW RIGHT FACE " ON UNIT7012 AT TIME STEP    1, STRESS PERIOD  13
 UBDSV1 SAVING "FLOW FRONT FACE " ON UNIT7012 AT TIME STEP    1, STRESS PERIOD  13
 UBDSV1 SAVING "FLOW LOWER FACE " ON UNIT7012 AT TIME STEP    1, STRESS PERIOD  13
 UBDSV4 SAVING " GHOST-NODE HEAD" ON UNIT7012 AT TIME STEP    1, STRESS PERIOD  13
1
  FLUX ACROSS PARENT-CHILD INTERFACE AT TIME STEP  1 IN STRESS PERIOD   13
  ------------------------------------------------------------------------
 G-N FLUX        PARENT        CHILD         DIFFERENCE      % DIFFERENCE
  RATE IN:      1.8692E+03    1.8697E+03    -4.1455E-01       -0.0222
 RATE OUT:      1.7004E+03    1.7001E+03     3.6572E-01        0.0215
 
 SOLVING FOR HEAD 
                                                   Max.-Head-Change                        Max.-Flux-Residual
  Residual-Control   Outer-Iter.   Inner-Iter.     Column Row Layer    Max.-Head-Change    Column Row Layer    Max.-Flux-Residual            L2-New               L2-Old           Solver-Max-Delh
          0                 1           6            12    3     4       0.1004718009E+00      12    3    1       0.6635903336E+02      0.1793271036E+03      0.6379312312E-01      0.1004718009E+00
          0                 2           5            12    3     4      -0.8676800456E-02      12    3    1      -0.6692325759E+01      0.1794955329E+02      0.1793271036E+03     -0.8676800456E-02
          0                 3           3            12    3     4      -0.4337042845E-03      12    3    1      -0.3283420992E+00      0.9020874728E+00      0.1794955329E+02     -0.4337042845E-03
          0                 4           2            12    3     4      -0.2207314444E-04       1    1    1      -0.2033261291E-01      0.4949932465E-01      0.9020874728E+00     -0.2207314444E-04

    ------------------------------------------------
       NWT REQUIRED            4 OUTER ITERATIONS 
       AND A TOTAL OF         16 INNER ITERATIONS.
    ------------------------------------------------
                                                   Max.-Head-Change                        Max.-Flux-Residual
  Residual-Control   Outer-Iter.   Inner-Iter.     Column Row Layer    Max.-Head-Change    Column Row Layer    Max.-Flux-Residual            L2-New               L2-Old           Solver-Max-Delh
          0                 1           5            12    3     3       0.4368348907E-01      12    3    1       0.2950796057E+02      0.7960191283E+02      0.4949932465E-01      0.4368348907E-01
          0                 2           4            12    3     3      -0.3771106765E-02      12    3    1      -0.2979490039E+01      0.7971216342E+01      0.7960191283E+02     -0.3771106765E-02
          0                 3           3            12    3     3      -0.1891210432E-03      12    3    1      -0.1473533867E+00      0.3990120344E+00      0.7971216342E+01     -0.1891210432E-03
          0                 4           2            12    3     3      -0.9582204419E-05       7    3    1      -0.6961285253E-02      0.2336604645E-01      0.3990120344E+00     -0.9582204419E-05

    ------------------------------------------------
       NWT REQUIRED            4 OUTER ITERATIONS 
       AND A TOTAL OF         14 INNER ITERATIONS.
    ------------------------------------------------
                                                   Max.-Head-Change                        Max.-Flux-Residual
  Residual-Control   Outer-Iter.   Inner-Iter.     Column Row Layer    Max.-Head-Change    Column Row Layer    Max.-Flux-Residual            L2-New               L2-Old           Solver-Max-Delh
          0                 1           5            12    3     3       0.2067577423E-01       1    1    1       0.1342136340E+02      0.3844485688E+02      0.2336604645E-01      0.2067577423E-01
          0                 2           4            12    3     3      -0.1784850450E-02       1    1    1      -0.1335336791E+01      0.3842611621E+01      0.3844485688E+02     -0.1784850450E-02
          0                 3           3            12    3     3      -0.8954206070E-04      12    3    1      -0.6940564720E-01      0.1928175380E+00      0.3842611621E+01     -0.8954206070E-04

    ------------------------------------------------
       NWT REQUIRED            3 OUTER ITERATIONS 
       AND A TOTAL OF         12 INNER ITERATIONS.
    ------------------------------------------------
                                                   Max.-Head-Change                        Max.-Flux-Residual
  Residual-Control   Outer-Iter.   Inner-Iter.     Column Row Layer    Max.-Head-Change    Column Row Layer    Max.-Flux-Residual            L2-New               L2-Old           Solver-Max-Delh
          0                 1           5            12    1     3       0.9751714031E-02       1    1    1       0.6530549079E+01      0.1810836434E+02      0.1928175380E+00      0.9751714031E-02
          0                 2           4            12    1     3      -0.8417268385E-03       1    1    1      -0.6493804109E+00      0.1818544782E+01      0.1810836434E+02     -0.8417268385E-03
          0                 3           3            12    1     3      -0.4227233109E-04       1    1    1      -0.4322802729E-01      0.9509441480E-01      0.1818544782E+01     -0.4227233109E-04

    ------------------------------------------------
       NWT REQUIRED            3 OUTER ITERATIONS 
       AND A TOTAL OF         12 INNER ITERATIONS.
    ------------------------------------------------
                                                   Max.-Head-Change                        Max.-Flux-Residual
  Residual-Control   Outer-Iter.   Inner-Iter.     Column Row Layer    Max.-Head-Change    Column Row Layer    Max.-Flux-Residual            L2-New               L2-Old           Solver-Max-Delh
          0                 1           4            12    1     3       0.4384136606E-02      12    1    1       0.2992367890E+01      0.8234187715E+01      0.9509441480E-01      0.4384136606E-02
          0                 2           3            12    1     3      -0.3772284030E-03      12    1    1      -0.2953548529E+00      0.8165135746E+00      0.8234187715E+01     -0.3772284030E-03
          0                 3           2            12    1     3      -0.1912789462E-04       1    1    1      -0.2263214858E-01      0.4543160938E-01      0.8165135746E+00     -0.1912789462E-04

    ------------------------------------------------
       NWT REQUIRED            3 OUTER ITERATIONS 
       AND A TOTAL OF          9 INNER ITERATIONS.
    ------------------------------------------------
                                                   Max.-Head-Change                        Max.-Flux-Residual
  Residual-Control   Outer-Iter.   Inner-Iter.     Column Row Layer    Max.-Head-Change    Column Row Layer    Max.-Flux-Residual            L2-New               L2-Old           Solver-Max-Delh
          0                 1           4            12    1     3       0.1806403419E-02      12    1    1       0.1333782239E+01      0.3457468454E+01      0.4543160938E-01      0.1806403419E-02
          0                 2           3            12    1     3      -0.1554504950E-03      12    1    1      -0.1393351814E+00      0.3419463852E+00      0.3457468454E+01     -0.1554504950E-03
          0                 3           2             1    1     1      -0.1043211204E-04       1    1    1      -0.1197451551E-01      0.2618869436E-01      0.3419463852E+00     -0.1043211204E-04

    ------------------------------------------------
       NWT REQUIRED            3 OUTER ITERATIONS 
       AND A TOTAL OF          9 INNER ITERATIONS.
    ------------------------------------------------
                                                   Max.-Head-Change                        Max.-Flux-Residual
  Residual-Control   Outer-Iter.   Inner-Iter.     Column Row Layer    Max.-Head-Change    Column Row Layer    Max.-Flux-Residual            L2-New               L2-Old           Solver-Max-Delh
          0                 1           4            12    1     3       0.6688065646E-03      12    1    1       0.5001221669E+00      0.1266505149E+01      0.2618869436E-01      0.6688065646E-03
          0                 2           3            12    1     3      -0.5755460382E-04      12    1    1      -0.5824422318E-01      0.1327982869E+00      0.1266505149E+01     -0.5755460382E-04

    ------------------------------------------------
       NWT REQUIRED            2 OUTER ITERATIONS 
       AND A TOTAL OF          7 INNER ITERATIONS.
    ------------------------------------------------
                                                   Max.-Head-Change                        Max.-Flux-Residual
  Residual-Control   Outer-Iter.   Inner-Iter.     Column Row Layer    Max.-Head-Change    Column Row Layer    Max.-Flux-Residual            L2-New               L2-Old           Solver-Max-Delh
          0                 1           3             1    3     3       0.2481222211E-03      12    1    1       0.1557754895E+00      0.3640949231E+00      0.1327982869E+00      0.2481222211E-03
          0                 2           2             1    3     3      -0.2118001691E-04      10    1    1      -0.1732290222E-01      0.3941671033E-01      0.3640949231E+00     -0.2118001691E-04

    ------------------------------------------------
       NWT REQUIRED            2 OUTER ITERATIONS 
       AND A TOTAL OF          5 INNER ITERATIONS.
    ------------------------------------------------
          0                 1           3             1    3     3       0.6618848067E-04      12    1    1       0.3833754524E-01      0.1085271989E+00      0.3941671033E-01      0.6618848067E-04

    ------------------------------------------------
       NWT REQUIRED            1 OUTER ITERATIONS 
       AND A TOTAL OF          3 INNER ITERATIONS.
    ------------------------------------------------
          0                 1           3             7    1     2      -0.4883347690E-04      12    1    1      -0.4761506995E-01      0.1020764814E+00      0.1085271989E+00     -0.4883347690E-04

    ------------------------------------------------
       NWT REQUIRED            1 OUTER ITERATIONS 
       AND A TOTAL OF          3 INNER ITERATIONS.
    ------------------------------------------------

 OUTPUT CONTROL FOR STRESS PERIOD     13   TIME STEP     2
    SAVE BUDGET
 UBDSV1 SAVING "         STORAGE" ON UNIT7012 AT TIME STEP    2, STRESS PERIOD  13
 UBDSV2 SAVING "   CONSTANT HEAD" ON UNIT7012 AT TIME STEP    2, STRESS PERIOD  13
 UBDSV1 SAVING "FLOW RIGHT FACE " ON UNIT7012 AT TIME STEP    2, STRESS PERIOD  13
 UBDSV1 SAVING "FLOW FRONT FACE " ON UNIT7012 AT TIME STEP    2, STRESS PERIOD  13
 UBDSV1 SAVING "FLOW LOWER FACE " ON UNIT7012 AT TIME STEP    2, STRESS PERIOD  13
 UBDSV4 SAVING " GHOST-NODE HEAD" ON UNIT7012 AT TIME STEP    2, STRESS PERIOD  13
1
  VOLUMETRIC BUDGET FOR ENTIRE MODEL AT END OF TIME STEP    2 IN STRESS PERIOD     13
  ------------------------------------------------------------------------------

     CUMULATIVE VOLUMES      L**3       RATES FOR THIS TIME STEP      L**3/T
     ------------------                 ------------------------

           IN:                                      IN:
           ---                                      ---
             STORAGE =       25658.8125               STORAGE =           0.0000
       CONSTANT HEAD =           0.0000         CONSTANT HEAD =           0.0000
     GHOST-NODE HEAD =     2164040.0000       GHOST-NODE HEAD =        1839.7369

            TOTAL IN =     2189698.7500              TOTAL IN =        1839.7369

          OUT:                                     OUT:
          ----                                     ----
             STORAGE =     1622419.7500               STORAGE =         174.8224
       CONSTANT HEAD =           0.0000         CONSTANT HEAD =           0.0000
     GHOST-NODE HEAD =      567276.3125       GHOST-NODE HEAD =        1664.8687

           TOTAL OUT =     2189696.0000             TOTAL OUT =        1839.6910

            IN - OUT =           2.7500              IN - OUT =       4.5898E-02

 PERCENT DISCREPANCY =           0.00     PERCENT DISCREPANCY =           0.00






          TIME SUMMARY AT END OF TIME STEP     2 IN STRESS PERIOD     13
                    SECONDS     MINUTES      HOURS       DAYS        YEARS
                    -----------------------------------------------------------
   TIME STEP LENGTH 1.31414E+06  21902.      365.04      15.210     4.16427E-02
 STRESS PERIOD TIME 2.62829E+06  43805.      730.08      30.420     8.32854E-02
         TOTAL TIME 3.41677E+07 5.69462E+05  9491.0      395.46      1.0827    
1
1
  FLUX ACROSS PARENT-CHILD INTERFACE AT TIME STEP  2 IN STRESS PERIOD   13
  ------------------------------------------------------------------------
 G-N FLUX        PARENT        CHILD         DIFFERENCE      % DIFFERENCE
  RATE IN:      1.8394E+03    1.8397E+03    -3.4155E-01       -0.0186
 RATE OUT:      1.6653E+03    1.6649E+03     3.9111E-01        0.0235
1
                            STRESS PERIOD NO.     14, LENGTH =   30.42000    
                            -----------------------------------------------

                              NUMBER OF TIME STEPS =     2

                               MULTIPLIER FOR DELT =     1.000

                            INITIAL TIME STEP SIZE =   15.21000    
 
 SOLVING FOR HEAD 
                                                   Max.-Head-Change                        Max.-Flux-Residual
  Residual-Control   Outer-Iter.   Inner-Iter.     Column Row Layer    Max.-Head-Change    Column Row Layer    Max.-Flux-Residual            L2-New               L2-Old           Solver-Max-Delh
          0                 1           6            12    3     1       0.1259939472E+00      12    3    1       0.1031760865E+03      0.2720831038E+03      0.1020764814E+00      0.1259939472E+00
          0                 2           5            12    3     1      -0.1095486758E-01      12    3    1      -0.1040046600E+02      0.2723851408E+02      0.2720831038E+03     -0.1095486758E-01
          0                 3           4            12    3     1      -0.5424586192E-03      12    3    1      -0.5172777901E+00      0.1354969132E+01      0.2723851408E+02     -0.5424586192E-03
          0                 4           2             4    3     1      -0.3000716736E-04       1    3    1      -0.3089155117E-01      0.7433876596E-01      0.1354969132E+01     -0.3000716736E-04

    ------------------------------------------------
       NWT REQUIRED            4 OUTER ITERATIONS 
       AND A TOTAL OF         17 INNER ITERATIONS.
    ------------------------------------------------
                                                   Max.-Head-Change                        Max.-Flux-Residual
  Residual-Control   Outer-Iter.   Inner-Iter.     Column Row Layer    Max.-Head-Change    Column Row Layer    Max.-Flux-Residual            L2-New               L2-Old           Solver-Max-Delh
          0                 1           6            12    3     1       0.5594545970E-01      12    3    1       0.4667985417E+02      0.1235632447E+03      0.7433876596E-01      0.5594545970E-01
          0                 2           4            12    3     1      -0.4864342169E-02      12    3    1      -0.4702326844E+01      0.1236349207E+02      0.1235632447E+03     -0.4864342169E-02
          0                 3           3            12    3     1      -0.2388200527E-03      12    3    1      -0.2304029439E+00      0.6154335179E+00      0.1236349207E+02     -0.2388200527E-03
          0                 4           2             2    3     1      -0.1554171978E-04      12    3    1      -0.1740434518E-01      0.3827469917E-01      0.6154335179E+00     -0.1554171978E-04

    ------------------------------------------------
       NWT REQUIRED            4 OUTER ITERATIONS 
       AND A TOTAL OF         15 INNER ITERATIONS.
    ------------------------------------------------
                                                   Max.-Head-Change                        Max.-Flux-Residual
  Residual-Control   Outer-Iter.   Inner-Iter.     Column Row Layer    Max.-Head-Change    Column Row Layer    Max.-Flux-Residual            L2-New               L2-Old           Solver-Max-Delh
          0                 1           5            12    3     1       0.2518445364E-01       1    1    1       0.2030661348E+02      0.5816454865E+02      0.3827469917E-01      0.2518445364E-01
          0                 2           4            12    3     1      -0.2190263412E-02      12    3    1      -0.2040821128E+01      0.5819176718E+01      0.5816454865E+02     -0.2190263412E-02
          0                 3           3            12    3     1      -0.1080792126E-03       1    1    1      -0.1023538408E+00      0.2865580818E+00      0.5819176718E+01     -0.1080792126E-03
          0                 4           2             5    1     1      -0.9201604457E-05       7    3    1      -0.7199864020E-02      0.2233420684E-01      0.2865580818E+00     -0.9201604457E-05

    ------------------------------------------------
       NWT REQUIRED            4 OUTER ITERATIONS 
       AND A TOTAL OF         14 INNER ITERATIONS.
    ------------------------------------------------
                                                   Max.-Head-Change                        Max.-Flux-Residual
  Residual-Control   Outer-Iter.   Inner-Iter.     Column Row Layer    Max.-Head-Change    Column Row Layer    Max.-Flux-Residual            L2-New               L2-Old           Solver-Max-Delh
          0                 1           5             1    1     2       0.1146580449E-01       1    1    1       0.9436592988E+01      0.2636001664E+02      0.2233420684E-01      0.1146580449E-01
          0                 2           4             1    1     2      -0.9893974856E-03       1    1    1      -0.9430305208E+00      0.2632372770E+01      0.2636001664E+02     -0.9893974856E-03
          0                 3           3             1    1     1      -0.5286949488E-04       1    1    1      -0.5090918322E-01      0.1352581234E+00      0.2632372770E+01     -0.5286949488E-04

    ------------------------------------------------
       NWT REQUIRED            3 OUTER ITERATIONS 
       AND A TOTAL OF         12 INNER ITERATIONS.
    ------------------------------------------------
                                                   Max.-Head-Change                        Max.-Flux-Residual
  Residual-Control   Outer-Iter.   Inner-Iter.     Column Row Layer    Max.-Head-Change    Column Row Layer    Max.-Flux-Residual            L2-New               L2-Old           Solver-Max-Delh
          0                 1           4            10    1     2       0.5306699830E-02      12    1    1       0.4077460307E+01      0.1138335702E+02      0.1352581234E+00      0.5306699830E-02
          0                 2           4            10    1     2      -0.4569912139E-03      12    1    1      -0.4134318195E+00      0.1135343885E+01      0.1138335702E+02     -0.4569912139E-03
          0                 3           2            12    1     1      -0.2483049295E-04      12    1    1      -0.2317433129E-01      0.6223670410E-01      0.1135343885E+01     -0.2483049295E-04

    ------------------------------------------------
       NWT REQUIRED            3 OUTER ITERATIONS 
       AND A TOTAL OF         10 INNER ITERATIONS.
    ------------------------------------------------
                                                   Max.-Head-Change                        Max.-Flux-Residual
  Residual-Control   Outer-Iter.   Inner-Iter.     Column Row Layer    Max.-Head-Change    Column Row Layer    Max.-Flux-Residual            L2-New               L2-Old           Solver-Max-Delh
          0                 1           4            10    1     2       0.2254657023E-02      12    1    1       0.1651180467E+01      0.4491988707E+01      0.6223670410E-01      0.2254657023E-02
          0                 2           3            10    1     2      -0.1938507013E-03      12    1    1      -0.1667543869E+00      0.4448838202E+00      0.4491988707E+01     -0.1938507013E-03
          0                 3           2             5    1     1      -0.1075778205E-04      12    3    1      -0.1202677577E-01      0.2909442814E-01      0.4448838202E+00     -0.1075778205E-04

    ------------------------------------------------
       NWT REQUIRED            3 OUTER ITERATIONS 
       AND A TOTAL OF          9 INNER ITERATIONS.
    ------------------------------------------------
                                                   Max.-Head-Change                        Max.-Flux-Residual
  Residual-Control   Outer-Iter.   Inner-Iter.     Column Row Layer    Max.-Head-Change    Column Row Layer    Max.-Flux-Residual            L2-New               L2-Old           Solver-Max-Delh
          0                 1           4            11    1     2       0.8122050686E-03      12    1    1       0.5419118755E+00      0.1500705397E+01      0.2909442814E-01      0.8122050686E-03
          0                 2           3            11    1     2      -0.7048224430E-04      12    1    1      -0.5994622351E-01      0.1584687647E+00      0.1500705397E+01     -0.7048224430E-04

    ------------------------------------------------
       NWT REQUIRED            2 OUTER ITERATIONS 
       AND A TOTAL OF          7 INNER ITERATIONS.
    ------------------------------------------------
                                                   Max.-Head-Change                        Max.-Flux-Residual
  Residual-Control   Outer-Iter.   Inner-Iter.     Column Row Layer    Max.-Head-Change    Column Row Layer    Max.-Flux-Residual            L2-New               L2-Old           Solver-Max-Delh
          0                 1           3             1    3     3       0.2840183147E-03      10    1    1       0.1237647991E+00      0.3090270494E+00      0.1584687647E+00      0.2840183147E-03
          0                 2           2             1    3     3      -0.2437081292E-04       2    3    1      -0.1211113494E-01      0.3582959738E-01      0.3090270494E+00     -0.2437081292E-04

    ------------------------------------------------
       NWT REQUIRED            2 OUTER ITERATIONS 
       AND A TOTAL OF          5 INNER ITERATIONS.
    ------------------------------------------------
          0                 1           3             1    3     3       0.7993436388E-04       1    1    1      -0.6201614067E-01      0.1452886749E+00      0.3582959738E-01      0.7993436388E-04

    ------------------------------------------------
       NWT REQUIRED            1 OUTER ITERATIONS 
       AND A TOTAL OF          3 INNER ITERATIONS.
    ------------------------------------------------
          0                 1           3             5    1     1      -0.7841567700E-04       1    1    1      -0.5651405395E-01      0.1648415016E+00      0.1452886749E+00     -0.7841567700E-04

    ------------------------------------------------
       NWT REQUIRED            1 OUTER ITERATIONS 
       AND A TOTAL OF          3 INNER ITERATIONS.
    ------------------------------------------------

 OUTPUT CONTROL FOR STRESS PERIOD     14   TIME STEP     1
    SAVE BUDGET
 UBDSV1 SAVING "         STORAGE" ON UNIT7012 AT TIME STEP    1, STRESS PERIOD  14
 UBDSV2 SAVING "   CONSTANT HEAD" ON UNIT7012 AT TIME STEP    1, STRESS PERIOD  14
 UBDSV1 SAVING "FLOW RIGHT FACE " ON UNIT7012 AT TIME STEP    1, STRESS PERIOD  14
 UBDSV1 SAVING "FLOW FRONT FACE " ON UNIT7012 AT TIME STEP    1, STRESS PERIOD  14
 UBDSV1 SAVING "FLOW LOWER FACE " ON UNIT7012 AT TIME STEP    1, STRESS PERIOD  14
 UBDSV4 SAVING " GHOST-NODE HEAD" ON UNIT7012 AT TIME STEP    1, STRESS PERIOD  14
1
  FLUX ACROSS PARENT-CHILD INTERFACE AT TIME STEP  1 IN STRESS PERIOD   14
  ------------------------------------------------------------------------
 G-N FLUX        PARENT        CHILD         DIFFERENCE      % DIFFERENCE
  RATE IN:      1.8329E+03    1.8334E+03    -5.3345E-01       -0.0291
 RATE OUT:      1.5791E+03    1.5786E+03     5.1868E-01        0.0329
 
 SOLVING FOR HEAD 
                                                   Max.-Head-Change                        Max.-Flux-Residual
  Residual-Control   Outer-Iter.   Inner-Iter.     Column Row Layer    Max.-Head-Change    Column Row Layer    Max.-Flux-Residual            L2-New               L2-Old           Solver-Max-Delh
          0                 1           6            11    3     4       0.1077498889E+00       1    3    1       0.8558284476E+02      0.2352124827E+03      0.1648415016E+00      0.1077498889E+00
          0                 2           5            11    3     4      -0.9305014412E-02       1    3    1      -0.8521605359E+01      0.2352945854E+02      0.2352124827E+03     -0.9305014412E-02
          0                 3           4            11    3     4      -0.4654712793E-03       1    3    1      -0.4292511855E+00      0.1185420174E+01      0.2352945854E+02     -0.4654712793E-03
          0                 4           2            11    3     4      -0.2345719579E-04      12    3    1      -0.2148878647E-01      0.5454734257E-01      0.1185420174E+01     -0.2345719579E-04

    ------------------------------------------------
       NWT REQUIRED            4 OUTER ITERATIONS 
       AND A TOTAL OF         17 INNER ITERATIONS.
    ------------------------------------------------
                                                   Max.-Head-Change                        Max.-Flux-Residual
  Residual-Control   Outer-Iter.   Inner-Iter.     Column Row Layer    Max.-Head-Change    Column Row Layer    Max.-Flux-Residual            L2-New               L2-Old           Solver-Max-Delh
          0                 1           5             1    3     2       0.4722586645E-01       1    3    1       0.3885903953E+02      0.1039251423E+03      0.5454734257E-01      0.4722586645E-01
          0                 2           4             1    3     2      -0.4075347098E-02       1    3    1      -0.3877875277E+01      0.1039084828E+02      0.1039251423E+03     -0.4075347098E-02
          0                 3           3             1    3     2      -0.2046467082E-03       1    3    1      -0.1928247671E+00      0.5193579158E+00      0.1039084828E+02     -0.2046467082E-03
          0                 4           2             2    3     1      -0.1079894460E-04      12    3    1      -0.1185739913E-01      0.3135075034E-01      0.5193579158E+00     -0.1079894460E-04

    ------------------------------------------------
       NWT REQUIRED            4 OUTER ITERATIONS 
       AND A TOTAL OF         14 INNER ITERATIONS.
    ------------------------------------------------
                                                   Max.-Head-Change                        Max.-Flux-Residual
  Residual-Control   Outer-Iter.   Inner-Iter.     Column Row Layer    Max.-Head-Change    Column Row Layer    Max.-Flux-Residual            L2-New               L2-Old           Solver-Max-Delh
          0                 1           5             1    1     2       0.2283481897E-01       1    1    1       0.1805537784E+02      0.5110879928E+02      0.3135075034E-01      0.2283481897E-01
          0                 2           4             1    1     2      -0.1970522270E-02       1    1    1      -0.1799599990E+01      0.5109903018E+01      0.5110879928E+02     -0.1970522270E-02
          0                 3           3             1    1     2      -0.9861674763E-04       1    1    1      -0.8671645611E-01      0.2558830110E+00      0.5109903018E+01     -0.9861674763E-04

    ------------------------------------------------
       NWT REQUIRED            3 OUTER ITERATIONS 
       AND A TOTAL OF         12 INNER ITERATIONS.
    ------------------------------------------------
                                                   Max.-Head-Change                        Max.-Flux-Residual
  Residual-Control   Outer-Iter.   Inner-Iter.     Column Row Layer    Max.-Head-Change    Column Row Layer    Max.-Flux-Residual            L2-New               L2-Old           Solver-Max-Delh
          0                 1           5             1    1     2       0.1116917878E-01       1    1    1       0.8884721413E+01      0.2443318591E+02      0.2558830110E+00      0.1116917878E-01
          0                 2           4             1    1     2      -0.9641990612E-03       1    1    1      -0.8870365421E+00      0.2438533945E+01      0.2443318591E+02     -0.9641990612E-03
          0                 3           3             1    1     2      -0.4774907837E-04       1    3    1      -0.4275872040E-01      0.1222443606E+00      0.2438533945E+01     -0.4774907837E-04

    ------------------------------------------------
       NWT REQUIRED            3 OUTER ITERATIONS 
       AND A TOTAL OF         12 INNER ITERATIONS.
    ------------------------------------------------
                                                   Max.-Head-Change                        Max.-Flux-Residual
  Residual-Control   Outer-Iter.   Inner-Iter.     Column Row Layer    Max.-Head-Change    Column Row Layer    Max.-Flux-Residual            L2-New               L2-Old           Solver-Max-Delh
          0                 1           4             8    1     2       0.5177373500E-02       1    1    1       0.4074636918E+01      0.1126529854E+02      0.1222443606E+00      0.5177373500E-02
          0                 2           3             8    1     2      -0.4449268120E-03      12    1    1      -0.4051314152E+00      0.1129824065E+01      0.1126529854E+02     -0.4449268120E-03
          0                 3           2             3    1     2      -0.2267056950E-04      12    1    1      -0.2176429494E-01      0.5869822885E-01      0.1129824065E+01     -0.2267056950E-04

    ------------------------------------------------
       NWT REQUIRED            3 OUTER ITERATIONS 
       AND A TOTAL OF          9 INNER ITERATIONS.
    ------------------------------------------------
                                                   Max.-Head-Change                        Max.-Flux-Residual
  Residual-Control   Outer-Iter.   Inner-Iter.     Column Row Layer    Max.-Head-Change    Column Row Layer    Max.-Flux-Residual            L2-New               L2-Old           Solver-Max-Delh
          0                 1           4            10    1     2       0.2284179236E-02      12    1    1       0.1801556275E+01      0.4820113709E+01      0.5869822885E-01      0.2284179236E-02
          0                 2           3            11    1     2      -0.1964349353E-03      12    1    1      -0.1709620634E+00      0.4758839088E+00      0.4820113709E+01     -0.1964349353E-03
          0                 3           2            12    1     1      -0.1288863788E-04      12    1    1      -0.1311976352E-01      0.3379991631E-01      0.4758839088E+00     -0.1288863788E-04

    ------------------------------------------------
       NWT REQUIRED            3 OUTER ITERATIONS 
       AND A TOTAL OF          9 INNER ITERATIONS.
    ------------------------------------------------
                                                   Max.-Head-Change                        Max.-Flux-Residual
  Residual-Control   Outer-Iter.   Inner-Iter.     Column Row Layer    Max.-Head-Change    Column Row Layer    Max.-Flux-Residual            L2-New               L2-Old           Solver-Max-Delh
          0                 1           4            11    1     2       0.9028040035E-03      12    1    1       0.7195926104E+00      0.1828970124E+01      0.3379991631E-01      0.9028040035E-03
          0                 2           3            11    1     1      -0.7967422205E-04      12    1    1      -0.7592651586E-01      0.1886974929E+00      0.1828970124E+01     -0.7967422205E-04

    ------------------------------------------------
       NWT REQUIRED            2 OUTER ITERATIONS 
       AND A TOTAL OF          7 INNER ITERATIONS.
    ------------------------------------------------
                                                   Max.-Head-Change                        Max.-Flux-Residual
  Residual-Control   Outer-Iter.   Inner-Iter.     Column Row Layer    Max.-Head-Change    Column Row Layer    Max.-Flux-Residual            L2-New               L2-Old           Solver-Max-Delh
          0                 1           3            12    3     3       0.3206599817E-03      12    1    1       0.2369408367E+00      0.5577962256E+00      0.1886974929E+00      0.3206599817E-03
          0                 2           2            12    3     3      -0.2758421753E-04      12    1    1      -0.1983939542E-01      0.5376172118E-01      0.5577962256E+00     -0.2758421753E-04

    ------------------------------------------------
       NWT REQUIRED            2 OUTER ITERATIONS 
       AND A TOTAL OF          5 INNER ITERATIONS.
    ------------------------------------------------
                                                   Max.-Head-Change                        Max.-Flux-Residual
  Residual-Control   Outer-Iter.   Inner-Iter.     Column Row Layer    Max.-Head-Change    Column Row Layer    Max.-Flux-Residual            L2-New               L2-Old           Solver-Max-Delh
          0                 1           3            12    3     2       0.1110163796E-03      12    3    1       0.5986223838E-01      0.1556291307E+00      0.5376172118E-01      0.1110163796E-03
          0                 2           2            12    3     2      -0.9391310727E-05       8    1    1       0.8426948451E-02      0.2284496338E-01      0.1556291307E+00     -0.9391310727E-05

    ------------------------------------------------
       NWT REQUIRED            2 OUTER ITERATIONS 
       AND A TOTAL OF          5 INNER ITERATIONS.
    ------------------------------------------------
          0                 1           2             7    1     3      -0.4648066130E-04       7    1    1      -0.4110336117E-01      0.1027086931E+00      0.2284496338E-01     -0.4648066130E-04

    ------------------------------------------------
       NWT REQUIRED            1 OUTER ITERATIONS 
       AND A TOTAL OF          2 INNER ITERATIONS.
    ------------------------------------------------

 OUTPUT CONTROL FOR STRESS PERIOD     14   TIME STEP     2
    SAVE BUDGET
 UBDSV1 SAVING "         STORAGE" ON UNIT7012 AT TIME STEP    2, STRESS PERIOD  14
 UBDSV2 SAVING "   CONSTANT HEAD" ON UNIT7012 AT TIME STEP    2, STRESS PERIOD  14
 UBDSV1 SAVING "FLOW RIGHT FACE " ON UNIT7012 AT TIME STEP    2, STRESS PERIOD  14
 UBDSV1 SAVING "FLOW FRONT FACE " ON UNIT7012 AT TIME STEP    2, STRESS PERIOD  14
 UBDSV1 SAVING "FLOW LOWER FACE " ON UNIT7012 AT TIME STEP    2, STRESS PERIOD  14
 UBDSV4 SAVING " GHOST-NODE HEAD" ON UNIT7012 AT TIME STEP    2, STRESS PERIOD  14
1
  VOLUMETRIC BUDGET FOR ENTIRE MODEL AT END OF TIME STEP    2 IN STRESS PERIOD     14
  ------------------------------------------------------------------------------

     CUMULATIVE VOLUMES      L**3       RATES FOR THIS TIME STEP      L**3/T
     ------------------                 ------------------------

           IN:                                      IN:
           ---                                      ---
             STORAGE =       25658.8125               STORAGE =           0.0000
       CONSTANT HEAD =           0.0000         CONSTANT HEAD =           0.0000
     GHOST-NODE HEAD =     2219092.0000       GHOST-NODE HEAD =        1786.0446

            TOTAL IN =     2244750.7500              TOTAL IN =        1786.0446

          OUT:                                     OUT:
          ----                                     ----
             STORAGE =     1629795.1250               STORAGE =         230.1239
       CONSTANT HEAD =           0.0000         CONSTANT HEAD =           0.0000
     GHOST-NODE HEAD =      614952.0000       GHOST-NODE HEAD =        1555.9315

           TOTAL OUT =     2244747.0000             TOTAL OUT =        1786.0554

            IN - OUT =           3.7500              IN - OUT =      -1.0864E-02

 PERCENT DISCREPANCY =           0.00     PERCENT DISCREPANCY =          -0.00






          TIME SUMMARY AT END OF TIME STEP     2 IN STRESS PERIOD     14
                    SECONDS     MINUTES      HOURS       DAYS        YEARS
                    -----------------------------------------------------------
   TIME STEP LENGTH 1.31414E+06  21902.      365.04      15.210     4.16427E-02
 STRESS PERIOD TIME 2.62829E+06  43805.      730.08      30.420     8.32854E-02
         TOTAL TIME 3.67960E+07 6.13267E+05  10221.      425.88      1.1660    
1
1
  FLUX ACROSS PARENT-CHILD INTERFACE AT TIME STEP  2 IN STRESS PERIOD   14
  ------------------------------------------------------------------------
 G-N FLUX        PARENT        CHILD         DIFFERENCE      % DIFFERENCE
  RATE IN:      1.7856E+03    1.7860E+03    -4.6558E-01       -0.0261
 RATE OUT:      1.5564E+03    1.5559E+03     4.2554E-01        0.0273
1
                            STRESS PERIOD NO.     15, LENGTH =   30.42000    
                            -----------------------------------------------

                              NUMBER OF TIME STEPS =     2

                               MULTIPLIER FOR DELT =     1.000

                            INITIAL TIME STEP SIZE =   15.21000    
 
 SOLVING FOR HEAD 
                                                   Max.-Head-Change                        Max.-Flux-Residual
  Residual-Control   Outer-Iter.   Inner-Iter.     Column Row Layer    Max.-Head-Change    Column Row Layer    Max.-Flux-Residual            L2-New               L2-Old           Solver-Max-Delh
          0                 1           6             1    1     1      -0.1026323357E+00       1    1    1      -0.8911927553E+02      0.2140280932E+03      0.1027086931E+00     -0.1026323357E+00
          0                 2           5             1    1     1       0.8810458051E-02       1    1    1       0.8846399528E+01      0.2131236228E+02      0.2140280932E+03      0.8810458051E-02
          0                 3           3             1    1     1       0.4462886276E-03       1    1    1       0.4499225132E+00      0.1073025312E+01      0.2131236228E+02      0.4462886276E-03
          0                 4           2             3    1     1       0.1986254467E-04       1    1    1       0.1859727874E-01      0.5291329451E-01      0.1073025312E+01      0.1986254467E-04

    ------------------------------------------------
       NWT REQUIRED            4 OUTER ITERATIONS 
       AND A TOTAL OF         16 INNER ITERATIONS.
    ------------------------------------------------
                                                   Max.-Head-Change                        Max.-Flux-Residual
  Residual-Control   Outer-Iter.   Inner-Iter.     Column Row Layer    Max.-Head-Change    Column Row Layer    Max.-Flux-Residual            L2-New               L2-Old           Solver-Max-Delh
          0                 1           5             1    1     1      -0.5057067999E-01       1    1    1      -0.4186647615E+02      0.1024477057E+03      0.5291329451E-01     -0.5057067999E-01
          0                 2           4             1    1     1       0.4340619596E-02       1    1    1       0.4156896033E+01      0.1021542706E+02      0.1024477057E+03      0.4340619596E-02
          0                 3           3             1    1     1       0.2209377684E-03       1    1    1       0.2115317392E+00      0.5131126799E+00      0.1021542706E+02      0.2209377684E-03
          0                 4           2            12    1     1       0.1126394236E-04      12    1    1       0.1164803014E-01      0.3165177732E-01      0.5131126799E+00      0.1126394236E-04

    ------------------------------------------------
       NWT REQUIRED            4 OUTER ITERATIONS 
       AND A TOTAL OF         14 INNER ITERATIONS.
    ------------------------------------------------
                                                   Max.-Head-Change                        Max.-Flux-Residual
  Residual-Control   Outer-Iter.   Inner-Iter.     Column Row Layer    Max.-Head-Change    Column Row Layer    Max.-Flux-Residual            L2-New               L2-Old           Solver-Max-Delh
          0                 1           5             1    1     1      -0.2007969807E-01       1    1    1      -0.1675813489E+02      0.3903601143E+02      0.3165177732E-01     -0.2007969807E-01
          0                 2           4             1    1     1       0.1722739672E-02       1    1    1       0.1663178365E+01      0.3890532100E+01      0.3903601143E+02      0.1722739672E-02
          0                 3           3             1    1     1       0.8755758603E-04       1    1    1       0.8389175544E-01      0.1961225854E+00      0.3890532100E+01      0.8755758603E-04

    ------------------------------------------------
       NWT REQUIRED            3 OUTER ITERATIONS 
       AND A TOTAL OF         12 INNER ITERATIONS.
    ------------------------------------------------
                                                   Max.-Head-Change                        Max.-Flux-Residual
  Residual-Control   Outer-Iter.   Inner-Iter.     Column Row Layer    Max.-Head-Change    Column Row Layer    Max.-Flux-Residual            L2-New               L2-Old           Solver-Max-Delh
          0                 1           4             1    3     1      -0.7016589108E-02       1    3    1      -0.6048550458E+01      0.1271789574E+02      0.1961225854E+00     -0.7016589108E-02
          0                 2           4             1    3     1       0.6025594793E-03       1    3    1       0.6014729802E+00      0.1267384133E+01      0.1271789574E+02      0.6025594793E-03
          0                 3           2             1    1     1       0.3153798200E-04       1    3    1       0.3145165910E-01      0.6683136115E-01      0.1267384133E+01      0.3153798200E-04

    ------------------------------------------------
       NWT REQUIRED            3 OUTER ITERATIONS 
       AND A TOTAL OF         10 INNER ITERATIONS.
    ------------------------------------------------
                                                   Max.-Head-Change                        Max.-Flux-Residual
  Residual-Control   Outer-Iter.   Inner-Iter.     Column Row Layer    Max.-Head-Change    Column Row Layer    Max.-Flux-Residual            L2-New               L2-Old           Solver-Max-Delh
          0                 1           4            12    1     4       0.2442265035E-02       1    3    1      -0.1723096412E+01      0.3674332259E+01      0.6683136115E-01      0.2442265035E-02
          0                 2           3            12    1     4      -0.2101865567E-03       1    3    1       0.1718796695E+00      0.3701723564E+00      0.3674332259E+01     -0.2101865567E-03
          0                 3           2            12    1     4      -0.1070982994E-04      12    2    1       0.1185868186E-01      0.2522023744E-01      0.3701723564E+00     -0.1070982994E-04

    ------------------------------------------------
       NWT REQUIRED            3 OUTER ITERATIONS 
       AND A TOTAL OF          9 INNER ITERATIONS.
    ------------------------------------------------
                                                   Max.-Head-Change                        Max.-Flux-Residual
  Residual-Control   Outer-Iter.   Inner-Iter.     Column Row Layer    Max.-Head-Change    Column Row Layer    Max.-Flux-Residual            L2-New               L2-Old           Solver-Max-Delh
          0                 1           4             7    1     1       0.1065813197E-02      12    2    1      -0.7627621322E+00      0.2044343812E+01      0.2522023744E-01      0.1065813197E-02
          0                 2           3             7    1     1      -0.9466315605E-04      12    2    1       0.7248974743E-01      0.2062200252E+00      0.2044343812E+01     -0.9466315605E-04

    ------------------------------------------------
       NWT REQUIRED            2 OUTER ITERATIONS 
       AND A TOTAL OF          7 INNER ITERATIONS.
    ------------------------------------------------
                                                   Max.-Head-Change                        Max.-Flux-Residual
  Residual-Control   Outer-Iter.   Inner-Iter.     Column Row Layer    Max.-Head-Change    Column Row Layer    Max.-Flux-Residual            L2-New               L2-Old           Solver-Max-Delh
          0                 1           3             7    1     1       0.8955957769E-03       9    1    1       0.4669317518E+00      0.1660088335E+01      0.2062200252E+00      0.8955957769E-03
          0                 2           3             8    1     1      -0.7826539442E-04       8    1    1      -0.5229671299E-01      0.1667026615E+00      0.1660088335E+01     -0.7826539442E-04

    ------------------------------------------------
       NWT REQUIRED            2 OUTER ITERATIONS 
       AND A TOTAL OF          6 INNER ITERATIONS.
    ------------------------------------------------
                                                   Max.-Head-Change                        Max.-Flux-Residual
  Residual-Control   Outer-Iter.   Inner-Iter.     Column Row Layer    Max.-Head-Change    Column Row Layer    Max.-Flux-Residual            L2-New               L2-Old           Solver-Max-Delh
          0                 1           3             7    1     1       0.5744962709E-03       1    1    1       0.3720124989E+00      0.1164963452E+01      0.1667026615E+00      0.5744962709E-03
          0                 2           3             7    1     1      -0.5302536168E-04       1    3    1      -0.4097357544E-01      0.1229341355E+00      0.1164963452E+01     -0.5302536168E-04

    ------------------------------------------------
       NWT REQUIRED            2 OUTER ITERATIONS 
       AND A TOTAL OF          6 INNER ITERATIONS.
    ------------------------------------------------
                                                   Max.-Head-Change                        Max.-Flux-Residual
  Residual-Control   Outer-Iter.   Inner-Iter.     Column Row Layer    Max.-Head-Change    Column Row Layer    Max.-Flux-Residual            L2-New               L2-Old           Solver-Max-Delh
          0                 1           3             1    3     1       0.3394654156E-03       1    3    1       0.2768946382E+00      0.7273520586E+00      0.1229341355E+00      0.3394654156E-03
          0                 2           2             1    2     1      -0.3235003002E-04       1    3    1      -0.2856392250E-01      0.7376804127E-01      0.7273520586E+00     -0.3235003002E-04

    ------------------------------------------------
       NWT REQUIRED            2 OUTER ITERATIONS 
       AND A TOTAL OF          5 INNER ITERATIONS.
    ------------------------------------------------

 OUTPUT CONTROL FOR STRESS PERIOD     15   TIME STEP     1
    SAVE BUDGET
 UBDSV1 SAVING "         STORAGE" ON UNIT7012 AT TIME STEP    1, STRESS PERIOD  15
 UBDSV2 SAVING "   CONSTANT HEAD" ON UNIT7012 AT TIME STEP    1, STRESS PERIOD  15
 UBDSV1 SAVING "FLOW RIGHT FACE " ON UNIT7012 AT TIME STEP    1, STRESS PERIOD  15
 UBDSV1 SAVING "FLOW FRONT FACE " ON UNIT7012 AT TIME STEP    1, STRESS PERIOD  15
 UBDSV1 SAVING "FLOW LOWER FACE " ON UNIT7012 AT TIME STEP    1, STRESS PERIOD  15
 UBDSV4 SAVING " GHOST-NODE HEAD" ON UNIT7012 AT TIME STEP    1, STRESS PERIOD  15
1
  FLUX ACROSS PARENT-CHILD INTERFACE AT TIME STEP  1 IN STRESS PERIOD   15
  ------------------------------------------------------------------------
 G-N FLUX        PARENT        CHILD         DIFFERENCE      % DIFFERENCE
  RATE IN:      1.4818E+03    1.4814E+03     4.3005E-01        0.0290
 RATE OUT:      1.6414E+03    1.6421E+03    -7.3438E-01       -0.0447
 
 SOLVING FOR HEAD 
                                                   Max.-Head-Change                        Max.-Flux-Residual
  Residual-Control   Outer-Iter.   Inner-Iter.     Column Row Layer    Max.-Head-Change    Column Row Layer    Max.-Flux-Residual            L2-New               L2-Old           Solver-Max-Delh
          0                 1           5             1    2     1      -0.6472940125E-01       1    1    1      -0.4939345035E+02      0.1186503018E+03      0.7376804127E-01     -0.6472940125E-01
          0                 2           4             1    2     1       0.5551856451E-02       1    1    1       0.4903893563E+01      0.1182790017E+02      0.1186503018E+03      0.5551856451E-02
          0                 3           3             1    2     1       0.2836925447E-03       1    1    1       0.2502740253E+00      0.5977252720E+00      0.1182790017E+02      0.2836925447E-03
          0                 4           2             6    1     1       0.1414678787E-04       1    1    1       0.1572405209E-01      0.3217201919E-01      0.5977252720E+00      0.1414678787E-04

    ------------------------------------------------
       NWT REQUIRED            4 OUTER ITERATIONS 
       AND A TOTAL OF         14 INNER ITERATIONS.
    ------------------------------------------------
                                                   Max.-Head-Change                        Max.-Flux-Residual
  Residual-Control   Outer-Iter.   Inner-Iter.     Column Row Layer    Max.-Head-Change    Column Row Layer    Max.-Flux-Residual            L2-New               L2-Old           Solver-Max-Delh
          0                 1           5             1    1     1      -0.2733243920E-01       1    1    1      -0.2265806796E+02      0.5227126894E+02      0.3217201919E-01     -0.2733243920E-01
          0                 2           4             1    1     1       0.2347689009E-02       1    1    1       0.2252356962E+01      0.5214872246E+01      0.5227126894E+02      0.2347689009E-02
          0                 3           3             1    1     1       0.1177063491E-03       1    1    1       0.1133061842E+00      0.2593117890E+00      0.5214872246E+01      0.1177063491E-03
          0                 4           2             1    3     1       0.9253540388E-05       1    3    1       0.1067687757E-01      0.2503400694E-01      0.2593117890E+00      0.9253540388E-05

    ------------------------------------------------
       NWT REQUIRED            4 OUTER ITERATIONS 
       AND A TOTAL OF         14 INNER ITERATIONS.
    ------------------------------------------------
                                                   Max.-Head-Change                        Max.-Flux-Residual
  Residual-Control   Outer-Iter.   Inner-Iter.     Column Row Layer    Max.-Head-Change    Column Row Layer    Max.-Flux-Residual            L2-New               L2-Old           Solver-Max-Delh
          0                 1           5             1    3     1      -0.1371025290E-01       1    3    1      -0.1122929914E+02      0.2703773380E+02      0.2503400694E-01     -0.1371025290E-01
          0                 2           4             1    1     1       0.1173958733E-02       1    1    1       0.1117689607E+01      0.2695098111E+01      0.2703773380E+02      0.1173958733E-02
          0                 3           3             1    3     1       0.6133118243E-04       1    3    1       0.5948051461E-01      0.1333547606E+00      0.2695098111E+01      0.6133118243E-04

    ------------------------------------------------
       NWT REQUIRED            3 OUTER ITERATIONS 
       AND A TOTAL OF         12 INNER ITERATIONS.
    ------------------------------------------------
                                                   Max.-Head-Change                        Max.-Flux-Residual
  Residual-Control   Outer-Iter.   Inner-Iter.     Column Row Layer    Max.-Head-Change    Column Row Layer    Max.-Flux-Residual            L2-New               L2-Old           Solver-Max-Delh
          0                 1           4             1    3     1      -0.6526237532E-02       1    3    1      -0.5323482238E+01      0.1320261952E+02      0.1333547606E+00     -0.6526237532E-02
          0                 2           4             1    3     1       0.5625489979E-03       1    3    1       0.5333613523E+00      0.1323888326E+01      0.1320261952E+02      0.5625489979E-03
          0                 3           2             1    1     1       0.3052051404E-04       1    1    1       0.3151161771E-01      0.7115059657E-01      0.1323888326E+01      0.3052051404E-04

    ------------------------------------------------
       NWT REQUIRED            3 OUTER ITERATIONS 
       AND A TOTAL OF         10 INNER ITERATIONS.
    ------------------------------------------------
                                                   Max.-Head-Change                        Max.-Flux-Residual
  Residual-Control   Outer-Iter.   Inner-Iter.     Column Row Layer    Max.-Head-Change    Column Row Layer    Max.-Flux-Residual            L2-New               L2-Old           Solver-Max-Delh
          0                 1           4             1    3     1      -0.2922537010E-02       1    3    1      -0.2382227585E+01      0.6109527123E+01      0.7115059657E-01     -0.2922537010E-02
          0                 2           3             1    3     1       0.2494267715E-03       1    3    1       0.2346646524E+00      0.6124399359E+00      0.6109527123E+01      0.2494267715E-03
          0                 3           2             1    2     1       0.1479702789E-04       2    3    1       0.1247482368E-01      0.3237061026E-01      0.6124399359E+00      0.1479702789E-04

    ------------------------------------------------
       NWT REQUIRED            3 OUTER ITERATIONS 
       AND A TOTAL OF          9 INNER ITERATIONS.
    ------------------------------------------------
                                                   Max.-Head-Change                        Max.-Flux-Residual
  Residual-Control   Outer-Iter.   Inner-Iter.     Column Row Layer    Max.-Head-Change    Column Row Layer    Max.-Flux-Residual            L2-New               L2-Old           Solver-Max-Delh
          0                 1           4             1    3     1      -0.1205898303E-02       1    3    1      -0.9792387364E+00      0.2659759128E+01      0.3237061026E-01     -0.1205898303E-02
          0                 2           3             1    3     1       0.1064593945E-03       1    3    1       0.1026713701E+00      0.2706239439E+00      0.2659759128E+01      0.1064593945E-03
          0                 3           2            12    1     1       0.1074924285E-04      12    1    1       0.1347781048E-01      0.2531461589E-01      0.2706239439E+00      0.1074924285E-04

    ------------------------------------------------
       NWT REQUIRED            3 OUTER ITERATIONS 
       AND A TOTAL OF          9 INNER ITERATIONS.
    ------------------------------------------------
                                                   Max.-Head-Change                        Max.-Flux-Residual
  Residual-Control   Outer-Iter.   Inner-Iter.     Column Row Layer    Max.-Head-Change    Column Row Layer    Max.-Flux-Residual            L2-New               L2-Old           Solver-Max-Delh
          0                 1           4            12    2     1      -0.5261628055E-03      12    3    1      -0.4405600272E+00      0.1081299874E+01      0.2531461589E-01     -0.5261628055E-03
          0                 2           3            12    2     1       0.4594835630E-04      12    1    1       0.4412701365E-01      0.1076690524E+00      0.1081299874E+01      0.4594835630E-04

    ------------------------------------------------
       NWT REQUIRED            2 OUTER ITERATIONS 
       AND A TOTAL OF          7 INNER ITERATIONS.
    ------------------------------------------------
                                                   Max.-Head-Change                        Max.-Flux-Residual
  Residual-Control   Outer-Iter.   Inner-Iter.     Column Row Layer    Max.-Head-Change    Column Row Layer    Max.-Flux-Residual            L2-New               L2-Old           Solver-Max-Delh
          0                 1           3            12    3     1      -0.2216966311E-03      12    3    1      -0.1989386102E+00      0.3867638063E+00      0.1076690524E+00     -0.2216966311E-03
          0                 2           2            12    1     1       0.1968554983E-04      12    1    1       0.2272386372E-01      0.4014468955E-01      0.3867638063E+00      0.1968554983E-04

    ------------------------------------------------
       NWT REQUIRED            2 OUTER ITERATIONS 
       AND A TOTAL OF          5 INNER ITERATIONS.
    ------------------------------------------------
                                                   Max.-Head-Change                        Max.-Flux-Residual
  Residual-Control   Outer-Iter.   Inner-Iter.     Column Row Layer    Max.-Head-Change    Column Row Layer    Max.-Flux-Residual            L2-New               L2-Old           Solver-Max-Delh
          0                 1           3            12    2     2      -0.1043418174E-03      12    1    1      -0.8378514991E-01      0.1392466823E+00      0.4014468955E-01     -0.1043418174E-03
          0                 2           2            12    2     1       0.1030548616E-04      12    2    1       0.9358656709E-02      0.1841397255E-01      0.1392466823E+00      0.1030548616E-04

    ------------------------------------------------
       NWT REQUIRED            2 OUTER ITERATIONS 
       AND A TOTAL OF          5 INNER ITERATIONS.
    ------------------------------------------------

 OUTPUT CONTROL FOR STRESS PERIOD     15   TIME STEP     2
    PRINT BUDGET
    SAVE HEAD FOR ALL LAYERS
    SAVE BUDGET
 UBDSV1 SAVING "         STORAGE" ON UNIT7012 AT TIME STEP    2, STRESS PERIOD  15
 UBDSV2 SAVING "   CONSTANT HEAD" ON UNIT7012 AT TIME STEP    2, STRESS PERIOD  15
 UBDSV1 SAVING "FLOW RIGHT FACE " ON UNIT7012 AT TIME STEP    2, STRESS PERIOD  15
 UBDSV1 SAVING "FLOW FRONT FACE " ON UNIT7012 AT TIME STEP    2, STRESS PERIOD  15
 UBDSV1 SAVING "FLOW LOWER FACE " ON UNIT7012 AT TIME STEP    2, STRESS PERIOD  15
 UBDSV4 SAVING " GHOST-NODE HEAD" ON UNIT7012 AT TIME STEP    2, STRESS PERIOD  15

 HEAD WILL BE SAVED ON UNIT 2212 AT END OF TIME STEP     2, STRESS PERIOD     15
1
  VOLUMETRIC BUDGET FOR ENTIRE MODEL AT END OF TIME STEP    2 IN STRESS PERIOD     15
  ------------------------------------------------------------------------------

     CUMULATIVE VOLUMES      L**3       RATES FOR THIS TIME STEP      L**3/T
     ------------------                 ------------------------

           IN:                                      IN:
           ---                                      ---
             STORAGE =       29878.3262               STORAGE =         111.0424
       CONSTANT HEAD =           0.0000         CONSTANT HEAD =           0.0000
     GHOST-NODE HEAD =     2263936.2500       GHOST-NODE HEAD =        1466.9764

            TOTAL IN =     2293814.5000              TOTAL IN =        1578.0188

          OUT:                                     OUT:
          ----                                     ----
             STORAGE =     1629916.8750               STORAGE =           2.3559
       CONSTANT HEAD =           0.0000         CONSTANT HEAD =           0.0000
     GHOST-NODE HEAD =      663894.0625       GHOST-NODE HEAD =        1575.6505

           TOTAL OUT =     2293811.0000             TOTAL OUT =        1578.0065

            IN - OUT =           3.5000              IN - OUT =       1.2329E-02

 PERCENT DISCREPANCY =           0.00     PERCENT DISCREPANCY =           0.00






          TIME SUMMARY AT END OF TIME STEP     2 IN STRESS PERIOD     15
                    SECONDS     MINUTES      HOURS       DAYS        YEARS
                    -----------------------------------------------------------
   TIME STEP LENGTH 1.31414E+06  21902.      365.04      15.210     4.16427E-02
 STRESS PERIOD TIME 2.62829E+06  43805.      730.08      30.420     8.32854E-02
         TOTAL TIME 3.94243E+07 6.57072E+05  10951.      456.30      1.2493    
1
1
  FLUX ACROSS PARENT-CHILD INTERFACE AT TIME STEP  2 IN STRESS PERIOD   15
  ------------------------------------------------------------------------
 G-N FLUX        PARENT        CHILD         DIFFERENCE      % DIFFERENCE
  RATE IN:      1.4675E+03    1.4670E+03     4.8010E-01        0.0327
 RATE OUT:      1.5753E+03    1.5757E+03    -3.2922E-01       -0.0209
1
                            STRESS PERIOD NO.     16, LENGTH =   30.42000    
                            -----------------------------------------------

                              NUMBER OF TIME STEPS =     2

                               MULTIPLIER FOR DELT =     1.000

                            INITIAL TIME STEP SIZE =   15.21000    
 
 SOLVING FOR HEAD 
                                                   Max.-Head-Change                        Max.-Flux-Residual
  Residual-Control   Outer-Iter.   Inner-Iter.     Column Row Layer    Max.-Head-Change    Column Row Layer    Max.-Flux-Residual            L2-New               L2-Old           Solver-Max-Delh
          0                 1           6            12    2     1      -0.7542475054E-01      12    1    1      -0.6487590267E+02      0.1470332790E+03      0.1841397255E-01     -0.7542475054E-01
          0                 2           4            12    2     1       0.6551683852E-02      12    1    1       0.6514873035E+01      0.1470086886E+02      0.1470332790E+03      0.6551683852E-02
          0                 3           3            12    2     1       0.3287091652E-03      12    1    1       0.3250236535E+00      0.7397071713E+00      0.1470086886E+02      0.3287091652E-03
          0                 4           2            10    3     1       0.1297228290E-04      10    3    1       0.1074878941E-01      0.3052204722E-01      0.7397071713E+00      0.1297228290E-04

    ------------------------------------------------
       NWT REQUIRED            4 OUTER ITERATIONS 
       AND A TOTAL OF         15 INNER ITERATIONS.
    ------------------------------------------------
                                                   Max.-Head-Change                        Max.-Flux-Residual
  Residual-Control   Outer-Iter.   Inner-Iter.     Column Row Layer    Max.-Head-Change    Column Row Layer    Max.-Flux-Residual            L2-New               L2-Old           Solver-Max-Delh
          0                 1           5            12    1     1      -0.4616478117E-01      12    1    1      -0.4101589526E+02      0.8059447625E+02      0.3052204722E-01     -0.4616478117E-01
          0                 2           4            12    1     1       0.4009969157E-02      12    1    1       0.4123715305E+01      0.8072541004E+01      0.8059447625E+02      0.4009969157E-02
          0                 3           3            12    1     1       0.1962103229E-03      12    1    1       0.2029479970E+00      0.4054779893E+00      0.8072541004E+01      0.1962103229E-03
          0                 4           2            12    1     1       0.1128947906E-04      12    1    1       0.1141443098E-01      0.2518420583E-01      0.4054779893E+00      0.1128947906E-04

    ------------------------------------------------
       NWT REQUIRED            4 OUTER ITERATIONS 
       AND A TOTAL OF         14 INNER ITERATIONS.
    ------------------------------------------------
                                                   Max.-Head-Change                        Max.-Flux-Residual
  Residual-Control   Outer-Iter.   Inner-Iter.     Column Row Layer    Max.-Head-Change    Column Row Layer    Max.-Flux-Residual            L2-New               L2-Old           Solver-Max-Delh
          0                 1           5            12    1     1      -0.2086713270E-01      12    1    1      -0.1783163513E+02      0.3803316269E+02      0.2518420583E-01     -0.2086713270E-01
          0                 2           4            12    1     1       0.1811605208E-02      12    1    1       0.1794825646E+01      0.3809117156E+01      0.3803316269E+02      0.1811605208E-02
          0                 3           3            12    1     1       0.8531564132E-04      12    1    1       0.8218256180E-01      0.1821384418E+00      0.3809117156E+01      0.8531564132E-04

    ------------------------------------------------
       NWT REQUIRED            3 OUTER ITERATIONS 
       AND A TOTAL OF         12 INNER ITERATIONS.
    ------------------------------------------------
                                                   Max.-Head-Change                        Max.-Flux-Residual
  Residual-Control   Outer-Iter.   Inner-Iter.     Column Row Layer    Max.-Head-Change    Column Row Layer    Max.-Flux-Residual            L2-New               L2-Old           Solver-Max-Delh
          0                 1           4            12    1     1      -0.8572195115E-02      12    1    1      -0.6851506715E+01      0.1733773958E+02      0.1821384418E+00     -0.8572195115E-02
          0                 2           4            12    1     1       0.7431645588E-03      12    1    1       0.6881199128E+00      0.1734106930E+01      0.1733773958E+02      0.7431645588E-03
          0                 3           3            12    2     1       0.3855613902E-04      12    1    1       0.3240952222E-01      0.8986622185E-01      0.1734106930E+01      0.3855613902E-04

    ------------------------------------------------
       NWT REQUIRED            3 OUTER ITERATIONS 
       AND A TOTAL OF         11 INNER ITERATIONS.
    ------------------------------------------------
                                                   Max.-Head-Change                        Max.-Flux-Residual
  Residual-Control   Outer-Iter.   Inner-Iter.     Column Row Layer    Max.-Head-Change    Column Row Layer    Max.-Flux-Residual            L2-New               L2-Old           Solver-Max-Delh
          0                 1           4            10    3     1      -0.3742867245E-02      12    3    1      -0.2653414034E+01      0.7793599967E+01      0.8986622185E-01     -0.3742867245E-02
          0                 2           3            10    3     1       0.3209898557E-03      12    3    1       0.2684058480E+00      0.7760693733E+00      0.7793599967E+01      0.3209898557E-03
          0                 3           2            11    3     1       0.1963594485E-04      12    3    1       0.1680641586E-01      0.4587796618E-01      0.7760693733E+00      0.1963594485E-04

    ------------------------------------------------
       NWT REQUIRED            3 OUTER ITERATIONS 
       AND A TOTAL OF          9 INNER ITERATIONS.
    ------------------------------------------------
                                                   Max.-Head-Change                        Max.-Flux-Residual
  Residual-Control   Outer-Iter.   Inner-Iter.     Column Row Layer    Max.-Head-Change    Column Row Layer    Max.-Flux-Residual            L2-New               L2-Old           Solver-Max-Delh
          0                 1           4             8    3     1      -0.1689940072E-02      12    3    1      -0.9909045149E+00      0.3421594743E+01      0.4587796618E-01     -0.1689940072E-02
          0                 2           3            10    3     1       0.1489477787E-03      12    3    1       0.1024102603E+00      0.3453535958E+00      0.3421594743E+01      0.1489477787E-03
          0                 3           2             6    3     1       0.9888219286E-05       3    3    1       0.7343806326E-02      0.2699331052E-01      0.3453535958E+00      0.9888219286E-05

    ------------------------------------------------
       NWT REQUIRED            3 OUTER ITERATIONS 
       AND A TOTAL OF          9 INNER ITERATIONS.
    ------------------------------------------------
                                                   Max.-Head-Change                        Max.-Flux-Residual
  Residual-Control   Outer-Iter.   Inner-Iter.     Column Row Layer    Max.-Head-Change    Column Row Layer    Max.-Flux-Residual            L2-New               L2-Old           Solver-Max-Delh
          0                 1           3             6    3     1      -0.7126356136E-03      10    3    1      -0.4045692619E+00      0.1398399924E+01      0.2699331052E-01     -0.7126356136E-03
          0                 2           3             6    3     1       0.6416443045E-04      11    3    1       0.4441849131E-01      0.1443815892E+00      0.1398399924E+01      0.6416443045E-04

    ------------------------------------------------
       NWT REQUIRED            2 OUTER ITERATIONS 
       AND A TOTAL OF          6 INNER ITERATIONS.
    ------------------------------------------------
                                                   Max.-Head-Change                        Max.-Flux-Residual
  Residual-Control   Outer-Iter.   Inner-Iter.     Column Row Layer    Max.-Head-Change    Column Row Layer    Max.-Flux-Residual            L2-New               L2-Old           Solver-Max-Delh
          0                 1           3             6    3     1      -0.2516995988E-03      11    3    1      -0.1358194766E+00      0.5065041422E+00      0.1443815892E+00     -0.2516995988E-03
          0                 2           2             5    1     1       0.2274531192E-04      10    3    1       0.1902268152E-01      0.5711014100E-01      0.5065041422E+00      0.2274531192E-04

    ------------------------------------------------
       NWT REQUIRED            2 OUTER ITERATIONS 
       AND A TOTAL OF          5 INNER ITERATIONS.
    ------------------------------------------------
          0                 1           3             5    1     1      -0.8284698358E-04      12    1    1       0.9244607593E-01      0.1914229392E+00      0.5711014100E-01     -0.8284698358E-04

    ------------------------------------------------
       NWT REQUIRED            1 OUTER ITERATIONS 
       AND A TOTAL OF          3 INNER ITERATIONS.
    ------------------------------------------------
          0                 1           3            12    1     1       0.6322775355E-04      12    1    1       0.5535942520E-01      0.1031396198E+00      0.1914229392E+00      0.6322775355E-04

    ------------------------------------------------
       NWT REQUIRED            1 OUTER ITERATIONS 
       AND A TOTAL OF          3 INNER ITERATIONS.
    ------------------------------------------------
          0                 1           3            12    3     1       0.5062437295E-04      12    3    1       0.4660417498E-01      0.9323553632E-01      0.1031396198E+00      0.5062437295E-04

    ------------------------------------------------
       NWT REQUIRED            1 OUTER ITERATIONS 
       AND A TOTAL OF          3 INNER ITERATIONS.
    ------------------------------------------------

 OUTPUT CONTROL FOR STRESS PERIOD     16   TIME STEP     1
    SAVE BUDGET
 UBDSV1 SAVING "         STORAGE" ON UNIT7012 AT TIME STEP    1, STRESS PERIOD  16
 UBDSV2 SAVING "   CONSTANT HEAD" ON UNIT7012 AT TIME STEP    1, STRESS PERIOD  16
 UBDSV1 SAVING "FLOW RIGHT FACE " ON UNIT7012 AT TIME STEP    1, STRESS PERIOD  16
 UBDSV1 SAVING "FLOW FRONT FACE " ON UNIT7012 AT TIME STEP    1, STRESS PERIOD  16
 UBDSV1 SAVING "FLOW LOWER FACE " ON UNIT7012 AT TIME STEP    1, STRESS PERIOD  16
 UBDSV4 SAVING " GHOST-NODE HEAD" ON UNIT7012 AT TIME STEP    1, STRESS PERIOD  16
1
  FLUX ACROSS PARENT-CHILD INTERFACE AT TIME STEP  1 IN STRESS PERIOD   16
  ------------------------------------------------------------------------
 G-N FLUX        PARENT        CHILD         DIFFERENCE      % DIFFERENCE
  RATE IN:      1.4529E+03    1.4527E+03     1.7175E-01        0.0118
 RATE OUT:      1.5781E+03    1.5783E+03    -1.5881E-01       -0.0101
 
 SOLVING FOR HEAD 
                                                   Max.-Head-Change                        Max.-Flux-Residual
  Residual-Control   Outer-Iter.   Inner-Iter.     Column Row Layer    Max.-Head-Change    Column Row Layer    Max.-Flux-Residual            L2-New               L2-Old           Solver-Max-Delh
          0                 1           5            12    2     1      -0.5684561775E-01      12    3    1      -0.4358562715E+02      0.1145262304E+03      0.9323553632E-01     -0.5684561775E-01
          0                 2           4            12    2     1       0.4938826516E-02      12    3    1       0.4373526134E+01      0.1144697393E+02      0.1145262304E+03      0.4938826516E-02
          0                 3           3            12    2     1       0.2467779292E-03      12    3    1       0.2206726943E+00      0.5806394616E+00      0.1144697393E+02      0.2467779292E-03
          0                 4           2            12    3     1       0.1497434430E-04      12    3    1       0.1781008407E-01      0.3345185320E-01      0.5806394616E+00      0.1497434430E-04

    ------------------------------------------------
       NWT REQUIRED            4 OUTER ITERATIONS 
       AND A TOTAL OF         14 INNER ITERATIONS.
    ------------------------------------------------
                                                   Max.-Head-Change                        Max.-Flux-Residual
  Residual-Control   Outer-Iter.   Inner-Iter.     Column Row Layer    Max.-Head-Change    Column Row Layer    Max.-Flux-Residual            L2-New               L2-Old           Solver-Max-Delh
          0                 1           5            12    1     1      -0.3608670966E-01      12    1    1      -0.3087343864E+02      0.6700893378E+02      0.3345185320E-01     -0.3608670966E-01
          0                 2           4            12    1     1       0.3129236668E-02      12    1    1       0.3095846566E+01      0.6708871284E+01      0.6700893378E+02      0.3129236668E-02
          0                 3           3            12    1     1       0.1572738005E-03      12    1    1       0.1576554220E+00      0.3297358095E+00      0.6708871284E+01      0.1572738005E-03
          0                 4           2            12    3     1       0.9104423167E-05      12    3    1       0.1260365036E-01      0.2492446993E-01      0.3297358095E+00      0.9104423167E-05

    ------------------------------------------------
       NWT REQUIRED            4 OUTER ITERATIONS 
       AND A TOTAL OF         14 INNER ITERATIONS.
    ------------------------------------------------
                                                   Max.-Head-Change                        Max.-Flux-Residual
  Residual-Control   Outer-Iter.   Inner-Iter.     Column Row Layer    Max.-Head-Change    Column Row Layer    Max.-Flux-Residual            L2-New               L2-Old           Solver-Max-Delh
          0                 1           5            12    1     1      -0.1739521753E-01      12    1    1      -0.1451558650E+02      0.3331298834E+02      0.2492446993E-01     -0.1739521753E-01
          0                 2           4            12    1     1       0.1514170078E-02      12    1    1       0.1463342006E+01      0.3338222732E+01      0.3331298834E+02      0.1514170078E-02
          0                 3           3            12    1     1       0.7451629737E-04      12    1    1       0.6979054119E-01      0.1676459589E+00      0.3338222732E+01      0.7451629737E-04

    ------------------------------------------------
       NWT REQUIRED            3 OUTER ITERATIONS 
       AND A TOTAL OF         12 INNER ITERATIONS.
    ------------------------------------------------
                                                   Max.-Head-Change                        Max.-Flux-Residual
  Residual-Control   Outer-Iter.   Inner-Iter.     Column Row Layer    Max.-Head-Change    Column Row Layer    Max.-Flux-Residual            L2-New               L2-Old           Solver-Max-Delh
          0                 1           4            12    1     1      -0.7764009289E-02      12    1    1      -0.6233811950E+01      0.1568926010E+02      0.1676459589E+00     -0.7764009289E-02
          0                 2           4            12    1     1       0.6752706758E-03      12    1    1       0.6319890596E+00      0.1567174994E+01      0.1568926010E+02      0.6752706758E-03
          0                 3           3            12    1     1       0.3519305529E-04      12    1    1       0.3231333161E-01      0.8390817532E-01      0.1567174994E+01      0.3519305529E-04

    ------------------------------------------------
       NWT REQUIRED            3 OUTER ITERATIONS 
       AND A TOTAL OF         11 INNER ITERATIONS.
    ------------------------------------------------
                                                   Max.-Head-Change                        Max.-Flux-Residual
  Residual-Control   Outer-Iter.   Inner-Iter.     Column Row Layer    Max.-Head-Change    Column Row Layer    Max.-Flux-Residual            L2-New               L2-Old           Solver-Max-Delh
          0                 1           4            11    3     1      -0.3324990039E-02      12    3    1      -0.2551052496E+01      0.7061401107E+01      0.8390817532E-01     -0.3324990039E-02
          0                 2           3            11    3     1       0.2861467114E-03      12    3    1       0.2542063454E+00      0.7052012784E+00      0.7061401107E+01      0.2861467114E-03
          0                 3           2             1    1     1       0.1766205664E-04       1    1    1       0.2269673790E-01      0.4298355865E-01      0.7052012784E+00      0.1766205664E-04

    ------------------------------------------------
       NWT REQUIRED            3 OUTER ITERATIONS 
       AND A TOTAL OF          9 INNER ITERATIONS.
    ------------------------------------------------
                                                   Max.-Head-Change                        Max.-Flux-Residual
  Residual-Control   Outer-Iter.   Inner-Iter.     Column Row Layer    Max.-Head-Change    Column Row Layer    Max.-Flux-Residual            L2-New               L2-Old           Solver-Max-Delh
          0                 1           4            10    3     2      -0.1490336529E-02      12    3    1      -0.1113306882E+01      0.3004149553E+01      0.4298355865E-01     -0.1490336529E-02
          0                 2           3            10    3     1       0.1321293113E-03      12    3    1       0.1132139595E+00      0.3041833167E+00      0.3004149553E+01      0.1321293113E-03
          0                 3           2             1    3     1       0.1131871426E-04       1    3    1       0.1280804561E-01      0.3001909140E-01      0.3041833167E+00      0.1131871426E-04

    ------------------------------------------------
       NWT REQUIRED            3 OUTER ITERATIONS 
       AND A TOTAL OF          9 INNER ITERATIONS.
    ------------------------------------------------
                                                   Max.-Head-Change                        Max.-Flux-Residual
  Residual-Control   Outer-Iter.   Inner-Iter.     Column Row Layer    Max.-Head-Change    Column Row Layer    Max.-Flux-Residual            L2-New               L2-Old           Solver-Max-Delh
          0                 1           3            10    3     2      -0.6025302280E-03      12    3    1      -0.4644105775E+00      0.1176609200E+01      0.3001909140E-01     -0.6025302280E-03
          0                 2           3            10    3     2       0.5151349761E-04      12    3    1       0.5349212993E-01      0.1201552947E+00      0.1176609200E+01      0.5151349761E-04

    ------------------------------------------------
       NWT REQUIRED            2 OUTER ITERATIONS 
       AND A TOTAL OF          6 INNER ITERATIONS.
    ------------------------------------------------
                                                   Max.-Head-Change                        Max.-Flux-Residual
  Residual-Control   Outer-Iter.   Inner-Iter.     Column Row Layer    Max.-Head-Change    Column Row Layer    Max.-Flux-Residual            L2-New               L2-Old           Solver-Max-Delh
          0                 1           3            10    3     1      -0.1974391870E-03      12    3    1      -0.1614678261E+00      0.4004857541E+00      0.1201552947E+00     -0.1974391870E-03
          0                 2           2             9    3     1       0.2233722324E-04      12    3    1       0.2334649782E-01      0.4685954495E-01      0.4004857541E+00      0.2233722324E-04

    ------------------------------------------------
       NWT REQUIRED            2 OUTER ITERATIONS 
       AND A TOTAL OF          5 INNER ITERATIONS.
    ------------------------------------------------
          0                 1           2             1    1     3      -0.5668124456E-04      10    3    1      -0.3306573932E-01      0.9467180923E-01      0.4685954495E-01     -0.5668124456E-04

    ------------------------------------------------
       NWT REQUIRED            1 OUTER ITERATIONS 
       AND A TOTAL OF          2 INNER ITERATIONS.
    ------------------------------------------------
          0                 1           2            11    1     1       0.3542376018E-04      12    1    1       0.3168885590E-01      0.6205714631E-01      0.9467180923E-01      0.3542376018E-04

    ------------------------------------------------
       NWT REQUIRED            1 OUTER ITERATIONS 
       AND A TOTAL OF          2 INNER ITERATIONS.
    ------------------------------------------------
          0                 1           2            11    3     1       0.2683709828E-04      11    3    1       0.2419218409E-01      0.5319344612E-01      0.6205714631E-01      0.2683709828E-04

    ------------------------------------------------
       NWT REQUIRED            1 OUTER ITERATIONS 
       AND A TOTAL OF          2 INNER ITERATIONS.
    ------------------------------------------------

 OUTPUT CONTROL FOR STRESS PERIOD     16   TIME STEP     2
    SAVE BUDGET
 UBDSV1 SAVING "         STORAGE" ON UNIT7012 AT TIME STEP    2, STRESS PERIOD  16
 UBDSV2 SAVING "   CONSTANT HEAD" ON UNIT7012 AT TIME STEP    2, STRESS PERIOD  16
 UBDSV1 SAVING "FLOW RIGHT FACE " ON UNIT7012 AT TIME STEP    2, STRESS PERIOD  16
 UBDSV1 SAVING "FLOW FRONT FACE " ON UNIT7012 AT TIME STEP    2, STRESS PERIOD  16
 UBDSV1 SAVING "FLOW LOWER FACE " ON UNIT7012 AT TIME STEP    2, STRESS PERIOD  16
 UBDSV4 SAVING " GHOST-NODE HEAD" ON UNIT7012 AT TIME STEP    2, STRESS PERIOD  16
1
  VOLUMETRIC BUDGET FOR ENTIRE MODEL AT END OF TIME STEP    2 IN STRESS PERIOD     16
  ------------------------------------------------------------------------------

     CUMULATIVE VOLUMES      L**3       RATES FOR THIS TIME STEP      L**3/T
     ------------------                 ------------------------

           IN:                                      IN:
           ---                                      ---
             STORAGE =       33584.1289               STORAGE =         118.1159
       CONSTANT HEAD =           0.0000         CONSTANT HEAD =           0.0000
     GHOST-NODE HEAD =     2308172.5000       GHOST-NODE HEAD =        1455.6732

            TOTAL IN =     2341756.7500              TOTAL IN =        1573.7891

          OUT:                                     OUT:
          ----                                     ----
             STORAGE =     1629916.8750               STORAGE =           0.0000
       CONSTANT HEAD =           0.0000         CONSTANT HEAD =           0.0000
     GHOST-NODE HEAD =      711837.1875       GHOST-NODE HEAD =        1573.8138

           TOTAL OUT =     2341754.0000             TOTAL OUT =        1573.8138

            IN - OUT =           2.7500              IN - OUT =      -2.4780E-02

 PERCENT DISCREPANCY =           0.00     PERCENT DISCREPANCY =          -0.00






          TIME SUMMARY AT END OF TIME STEP     2 IN STRESS PERIOD     16
                    SECONDS     MINUTES      HOURS       DAYS        YEARS
                    -----------------------------------------------------------
   TIME STEP LENGTH 1.31414E+06  21902.      365.04      15.210     4.16427E-02
 STRESS PERIOD TIME 2.62829E+06  43805.      730.08      30.420     8.32854E-02
         TOTAL TIME 4.20526E+07 7.00877E+05  11681.      486.72      1.3326    
1
1
  FLUX ACROSS PARENT-CHILD INTERFACE AT TIME STEP  2 IN STRESS PERIOD   16
  ------------------------------------------------------------------------
 G-N FLUX        PARENT        CHILD         DIFFERENCE      % DIFFERENCE
  RATE IN:      1.4558E+03    1.4557E+03     1.1755E-01        0.0081
 RATE OUT:      1.5736E+03    1.5738E+03    -1.7737E-01       -0.0113
1
                            STRESS PERIOD NO.     17, LENGTH =   30.42000    
                            -----------------------------------------------

                              NUMBER OF TIME STEPS =     2

                               MULTIPLIER FOR DELT =     1.000

                            INITIAL TIME STEP SIZE =   15.21000    
 
 SOLVING FOR HEAD 
                                                   Max.-Head-Change                        Max.-Flux-Residual
  Residual-Control   Outer-Iter.   Inner-Iter.     Column Row Layer    Max.-Head-Change    Column Row Layer    Max.-Flux-Residual            L2-New               L2-Old           Solver-Max-Delh
          0                 1           5            12    3     1      -0.4028690631E-01      12    3    1      -0.3633978665E+02      0.6545324346E+02      0.5319344612E-01     -0.4028690631E-01
          0                 2           4            12    3     1       0.3500501991E-02      12    3    1       0.3653713867E+01      0.6569327771E+01      0.6545324346E+02      0.3500501991E-02
          0                 3           3            12    3     1       0.1782491326E-03      12    3    1       0.1877245053E+00      0.3290035549E+00      0.6569327771E+01      0.1782491326E-03
          0                 4           2             1    1     1       0.8365549288E-05      12    3    1       0.1339297587E-01      0.2433380489E-01      0.3290035549E+00      0.8365549288E-05

    ------------------------------------------------
       NWT REQUIRED            4 OUTER ITERATIONS 
       AND A TOTAL OF         14 INNER ITERATIONS.
    ------------------------------------------------
                                                   Max.-Head-Change                        Max.-Flux-Residual
  Residual-Control   Outer-Iter.   Inner-Iter.     Column Row Layer    Max.-Head-Change    Column Row Layer    Max.-Flux-Residual            L2-New               L2-Old           Solver-Max-Delh
          0                 1           5            12    1     2      -0.2916173002E-01      12    1    1      -0.2411063805E+02      0.4278303376E+02      0.2433380489E-01     -0.2916173002E-01
          0                 2           4            12    1     2       0.2520379389E-02      12    1    1       0.2433926291E+01      0.4303229007E+01      0.4278303376E+02      0.2520379389E-02
          0                 3           3            12    1     2       0.1257150249E-03      12    1    1       0.1171115564E+00      0.2116159296E+00      0.4303229007E+01      0.1257150249E-03
          0                 4           1            12    1     2       0.5461466474E-05       1    2    1       0.8238755865E-02      0.1563291027E-01      0.2116159296E+00      0.5461466474E-05

    ------------------------------------------------
       NWT REQUIRED            4 OUTER ITERATIONS 
       AND A TOTAL OF         13 INNER ITERATIONS.
    ------------------------------------------------
                                                   Max.-Head-Change                        Max.-Flux-Residual
  Residual-Control   Outer-Iter.   Inner-Iter.     Column Row Layer    Max.-Head-Change    Column Row Layer    Max.-Flux-Residual            L2-New               L2-Old           Solver-Max-Delh
          0                 1           5            12    1     2      -0.1446498218E-01      12    1    1      -0.1164203756E+02      0.2166259484E+02      0.1563291027E-01     -0.1446498218E-01
          0                 2           4            12    1     2       0.1249488707E-02      12    1    1       0.1168893025E+01      0.2168960838E+01      0.2166259484E+02      0.1249488707E-02
          0                 3           3            12    1     2       0.6266297348E-04      12    1    1       0.5703064217E-01      0.1106701749E+00      0.2168960838E+01      0.6266297348E-04

    ------------------------------------------------
       NWT REQUIRED            3 OUTER ITERATIONS 
       AND A TOTAL OF         12 INNER ITERATIONS.
    ------------------------------------------------
                                                   Max.-Head-Change                        Max.-Flux-Residual
  Residual-Control   Outer-Iter.   Inner-Iter.     Column Row Layer    Max.-Head-Change    Column Row Layer    Max.-Flux-Residual            L2-New               L2-Old           Solver-Max-Delh
          0                 1           4            12    1     2      -0.6652257839E-02      12    1    1      -0.5070816802E+01      0.1065919820E+02      0.1106701749E+00     -0.6652257839E-02
          0                 2           4            12    1     2       0.5748875327E-03      12    1    1       0.5106370973E+00      0.1073727184E+01      0.1065919820E+02      0.5748875327E-03
          0                 3           2            12    1     2       0.2862449704E-04      12    3    1       0.2096854069E-01      0.5141360133E-01      0.1073727184E+01      0.2862449704E-04

    ------------------------------------------------
       NWT REQUIRED            3 OUTER ITERATIONS 
       AND A TOTAL OF         10 INNER ITERATIONS.
    ------------------------------------------------
                                                   Max.-Head-Change                        Max.-Flux-Residual
  Residual-Control   Outer-Iter.   Inner-Iter.     Column Row Layer    Max.-Head-Change    Column Row Layer    Max.-Flux-Residual            L2-New               L2-Old           Solver-Max-Delh
          0                 1           4            11    1     2      -0.2900427574E-02      12    1    1      -0.1980308315E+01      0.5172705261E+01      0.5141360133E-01     -0.2900427574E-02
          0                 2           3            11    1     2       0.2502029320E-03      12    1    1       0.2002288878E+00      0.5169534732E+00      0.5172705261E+01      0.2502029320E-03
          0                 3           2            11    1     2       0.1251439000E-04       1    1    1       0.1269293751E-01      0.3165884279E-01      0.5169534732E+00      0.1251439000E-04

    ------------------------------------------------
       NWT REQUIRED            3 OUTER ITERATIONS 
       AND A TOTAL OF          9 INNER ITERATIONS.
    ------------------------------------------------
                                                   Max.-Head-Change                        Max.-Flux-Residual
  Residual-Control   Outer-Iter.   Inner-Iter.     Column Row Layer    Max.-Head-Change    Column Row Layer    Max.-Flux-Residual            L2-New               L2-Old           Solver-Max-Delh
          0                 1           4            10    1     1      -0.1241543589E-02      12    1    1      -0.6579730383E+00      0.2455466926E+01      0.3165884279E-01     -0.1241543589E-02
          0                 2           3            10    1     2       0.1053486474E-03      12    1    1       0.7024870173E-01      0.2475053133E+00      0.2455466926E+01      0.1053486474E-03
          0                 3           2             6    3     1       0.9288261628E-05      10    3    1       0.8065161062E-02      0.2472093678E-01      0.2475053133E+00      0.9288261628E-05

    ------------------------------------------------
       NWT REQUIRED            3 OUTER ITERATIONS 
       AND A TOTAL OF          9 INNER ITERATIONS.
    ------------------------------------------------
                                                   Max.-Head-Change                        Max.-Flux-Residual
  Residual-Control   Outer-Iter.   Inner-Iter.     Column Row Layer    Max.-Head-Change    Column Row Layer    Max.-Flux-Residual            L2-New               L2-Old           Solver-Max-Delh
          0                 1           3             7    3     1      -0.5633191145E-03      11    3    1      -0.2650931851E+00      0.1132444070E+01      0.2472093678E-01     -0.5633191145E-03
          0                 2           2             9    3     1       0.5080089350E-04       9    3    1       0.3001347621E-01      0.1123555736E+00      0.1132444070E+01      0.5080089350E-04

    ------------------------------------------------
       NWT REQUIRED            2 OUTER ITERATIONS 
       AND A TOTAL OF          5 INNER ITERATIONS.
    ------------------------------------------------
                                                   Max.-Head-Change                        Max.-Flux-Residual
  Residual-Control   Outer-Iter.   Inner-Iter.     Column Row Layer    Max.-Head-Change    Column Row Layer    Max.-Flux-Residual            L2-New               L2-Old           Solver-Max-Delh
          0                 1           3             6    3     1      -0.2512792157E-03       6    3    1      -0.1269826946E+00      0.4716893753E+00      0.1123555736E+00     -0.2512792157E-03
          0                 2           2             6    3     1       0.2286291876E-04       2    3    1       0.1486554783E-01      0.5000411881E-01      0.4716893753E+00      0.2286291876E-04

    ------------------------------------------------
       NWT REQUIRED            2 OUTER ITERATIONS 
       AND A TOTAL OF          5 INNER ITERATIONS.
    ------------------------------------------------
          0                 1           3             5    3     1      -0.9458849222E-04       4    3    1      -0.5160732858E-01      0.1750231704E+00      0.5000411881E-01     -0.9458849222E-04

    ------------------------------------------------
       NWT REQUIRED            1 OUTER ITERATIONS 
       AND A TOTAL OF          3 INNER ITERATIONS.
    ------------------------------------------------
          0                 1           2            12    1     1       0.3040107623E-04      12    1    1       0.2902483766E-01      0.6906771482E-01      0.1750231704E+00      0.3040107623E-04

    ------------------------------------------------
       NWT REQUIRED            1 OUTER ITERATIONS 
       AND A TOTAL OF          2 INNER ITERATIONS.
    ------------------------------------------------
          0                 1           2            11    1     2       0.2236212763E-04      11    1    1       0.1063309598E-01      0.2804315725E-01      0.6906771482E-01      0.2236212763E-04

    ------------------------------------------------
       NWT REQUIRED            1 OUTER ITERATIONS 
       AND A TOTAL OF          2 INNER ITERATIONS.
    ------------------------------------------------
          0                 1           2             5    3     3       0.2021339070E-04       1    2    1      -0.1476706460E-01      0.3090818262E-01      0.2804315725E-01      0.2021339070E-04

    ------------------------------------------------
       NWT REQUIRED            1 OUTER ITERATIONS 
       AND A TOTAL OF          2 INNER ITERATIONS.
    ------------------------------------------------

 OUTPUT CONTROL FOR STRESS PERIOD     17   TIME STEP     1
    SAVE BUDGET
 UBDSV1 SAVING "         STORAGE" ON UNIT7012 AT TIME STEP    1, STRESS PERIOD  17
 UBDSV2 SAVING "   CONSTANT HEAD" ON UNIT7012 AT TIME STEP    1, STRESS PERIOD  17
 UBDSV1 SAVING "FLOW RIGHT FACE " ON UNIT7012 AT TIME STEP    1, STRESS PERIOD  17
 UBDSV1 SAVING "FLOW FRONT FACE " ON UNIT7012 AT TIME STEP    1, STRESS PERIOD  17
 UBDSV1 SAVING "FLOW LOWER FACE " ON UNIT7012 AT TIME STEP    1, STRESS PERIOD  17
 UBDSV4 SAVING " GHOST-NODE HEAD" ON UNIT7012 AT TIME STEP    1, STRESS PERIOD  17
1
  FLUX ACROSS PARENT-CHILD INTERFACE AT TIME STEP  1 IN STRESS PERIOD   17
  ------------------------------------------------------------------------
 G-N FLUX        PARENT        CHILD         DIFFERENCE      % DIFFERENCE
  RATE IN:      1.5100E+03    1.5100E+03     5.8228E-02        0.0039
 RATE OUT:      1.5717E+03    1.5717E+03    -5.1147E-02       -0.0033
 
 SOLVING FOR HEAD 
                                                   Max.-Head-Change                        Max.-Flux-Residual
  Residual-Control   Outer-Iter.   Inner-Iter.     Column Row Layer    Max.-Head-Change    Column Row Layer    Max.-Flux-Residual            L2-New               L2-Old           Solver-Max-Delh
          0                 1           5            12    2     4      -0.4583795033E-01      12    3    1      -0.3258043310E+02      0.7599349258E+02      0.3090818262E-01     -0.4583795033E-01
          0                 2           4            12    2     4       0.3956590289E-02      12    3    1       0.3265565892E+01      0.7593532140E+01      0.7599349258E+02      0.3956590289E-02
          0                 3           3            12    2     4       0.1985774074E-03      12    3    1       0.1684008711E+00      0.3802790904E+00      0.7593532140E+01      0.1985774074E-03
          0                 4           2             1    1     1       0.1085875900E-04       1    1    1       0.1352928206E-01      0.2939715683E-01      0.3802790904E+00      0.1085875900E-04

    ------------------------------------------------
       NWT REQUIRED            4 OUTER ITERATIONS 
       AND A TOTAL OF         14 INNER ITERATIONS.
    ------------------------------------------------
                                                   Max.-Head-Change                        Max.-Flux-Residual
  Residual-Control   Outer-Iter.   Inner-Iter.     Column Row Layer    Max.-Head-Change    Column Row Layer    Max.-Flux-Residual            L2-New               L2-Old           Solver-Max-Delh
          0                 1           5            12    1     2      -0.2954639877E-01      12    1    1      -0.2389333930E+02      0.4953786845E+02      0.2939715683E-01     -0.2954639877E-01
          0                 2           4            12    1     2       0.2553139012E-02      12    1    1       0.2404239600E+01      0.4965525605E+01      0.4953786845E+02      0.2553139012E-02
          0                 3           3            12    1     2       0.1275169148E-03      12    1    1       0.1110436436E+00      0.2466523826E+00      0.4965525605E+01      0.1275169148E-03
          0                 4           2            12    1     1       0.8761909198E-05      12    1    1       0.1363883499E-01      0.1959436129E-01      0.2466523826E+00      0.8761909198E-05

    ------------------------------------------------
       NWT REQUIRED            4 OUTER ITERATIONS 
       AND A TOTAL OF         14 INNER ITERATIONS.
    ------------------------------------------------
                                                   Max.-Head-Change                        Max.-Flux-Residual
  Residual-Control   Outer-Iter.   Inner-Iter.     Column Row Layer    Max.-Head-Change    Column Row Layer    Max.-Flux-Residual            L2-New               L2-Old           Solver-Max-Delh
          0                 1           5            12    1     2      -0.1456095695E-01      12    1    1      -0.1167279666E+02      0.2438445858E+02      0.1959436129E-01     -0.1456095695E-01
          0                 2           4            12    1     2       0.1257863799E-02      12    1    1       0.1171481992E+01      0.2441971822E+01      0.2438445858E+02      0.1257863799E-02
          0                 3           3            12    1     2       0.6277759115E-04      12    1    1       0.5570161447E-01      0.1194682537E+00      0.2441971822E+01      0.6277759115E-04

    ------------------------------------------------
       NWT REQUIRED            3 OUTER ITERATIONS 
       AND A TOTAL OF         12 INNER ITERATIONS.
    ------------------------------------------------
                                                   Max.-Head-Change                        Max.-Flux-Residual
  Residual-Control   Outer-Iter.   Inner-Iter.     Column Row Layer    Max.-Head-Change    Column Row Layer    Max.-Flux-Residual            L2-New               L2-Old           Solver-Max-Delh
          0                 1           4            12    1     2      -0.6680640973E-02      12    1    1      -0.5192745467E+01      0.1135038370E+02      0.1194682537E+00     -0.6680640973E-02
          0                 2           4            12    1     2       0.5769728652E-03      12    1    1       0.5292414549E+00      0.1136805469E+01      0.1135038370E+02      0.5769728652E-03
          0                 3           2            12    1     2       0.2856850725E-04      12    1    1       0.2181421517E-01      0.5543440476E-01      0.1136805469E+01      0.2856850725E-04

    ------------------------------------------------
       NWT REQUIRED            3 OUTER ITERATIONS 
       AND A TOTAL OF         10 INNER ITERATIONS.
    ------------------------------------------------
                                                   Max.-Head-Change                        Max.-Flux-Residual
  Residual-Control   Outer-Iter.   Inner-Iter.     Column Row Layer    Max.-Head-Change    Column Row Layer    Max.-Flux-Residual            L2-New               L2-Old           Solver-Max-Delh
          0                 1           4            12    1     2      -0.2827974251E-02      12    1    1      -0.2080761342E+01      0.4964468574E+01      0.5543440476E-01     -0.2827974251E-02
          0                 2           3            12    1     2       0.2439512522E-03      12    1    1       0.2053457286E+00      0.4943378286E+00      0.4964468574E+01      0.2439512522E-03
          0                 3           2            12    1     2       0.1203740707E-04       1    1    1       0.1104184450E-01      0.2894418457E-01      0.4943378286E+00      0.1203740707E-04

    ------------------------------------------------
       NWT REQUIRED            3 OUTER ITERATIONS 
       AND A TOTAL OF          9 INNER ITERATIONS.
    ------------------------------------------------
                                                   Max.-Head-Change                        Max.-Flux-Residual
  Residual-Control   Outer-Iter.   Inner-Iter.     Column Row Layer    Max.-Head-Change    Column Row Layer    Max.-Flux-Residual            L2-New               L2-Old           Solver-Max-Delh
          0                 1           4            12    1     2      -0.1074133778E-02      12    1    1      -0.6895813977E+00      0.2003195047E+01      0.2894418457E-01     -0.1074133778E-02
          0                 2           3            12    1     2       0.9192928481E-04      12    3    1       0.6469171803E-01      0.1983670326E+00      0.2003195047E+01      0.9192928481E-04

    ------------------------------------------------
       NWT REQUIRED            2 OUTER ITERATIONS 
       AND A TOTAL OF          7 INNER ITERATIONS.
    ------------------------------------------------
                                                   Max.-Head-Change                        Max.-Flux-Residual
  Residual-Control   Outer-Iter.   Inner-Iter.     Column Row Layer    Max.-Head-Change    Column Row Layer    Max.-Flux-Residual            L2-New               L2-Old           Solver-Max-Delh
          0                 1           3            11    3     2      -0.4189411484E-03      12    3    1      -0.2273000657E+00      0.7262345175E+00      0.1983670326E+00     -0.4189411484E-03
          0                 2           2            10    3     1       0.3811156431E-04      12    3    1       0.2779334754E-01      0.7588073280E-01      0.7262345175E+00      0.3811156431E-04

    ------------------------------------------------
       NWT REQUIRED            2 OUTER ITERATIONS 
       AND A TOTAL OF          5 INNER ITERATIONS.
    ------------------------------------------------
                                                   Max.-Head-Change                        Max.-Flux-Residual
  Residual-Control   Outer-Iter.   Inner-Iter.     Column Row Layer    Max.-Head-Change    Column Row Layer    Max.-Flux-Residual            L2-New               L2-Old           Solver-Max-Delh
          0                 1           3            10    3     2      -0.1339536096E-03      10    3    1      -0.8195922140E-01      0.2248075633E+00      0.7588073280E-01     -0.1339536096E-03
          0                 2           2             8    3     1       0.1413473986E-04       8    3    1       0.1278589683E-01      0.3082176199E-01      0.2248075633E+00      0.1413473986E-04

    ------------------------------------------------
       NWT REQUIRED            2 OUTER ITERATIONS 
       AND A TOTAL OF          5 INNER ITERATIONS.
    ------------------------------------------------
          0                 1           2             7    3     1      -0.3631764767E-04      12    1    1       0.3933561605E-01      0.8701954598E-01      0.3082176199E-01     -0.3631764767E-04

    ------------------------------------------------
       NWT REQUIRED            1 OUTER ITERATIONS 
       AND A TOTAL OF          2 INNER ITERATIONS.
    ------------------------------------------------
          0                 1           2            12    1     1       0.3798801352E-04      12    1    1       0.3432208003E-01      0.6176989296E-01      0.8701954598E-01      0.3798801352E-04

    ------------------------------------------------
       NWT REQUIRED            1 OUTER ITERATIONS 
       AND A TOTAL OF          2 INNER ITERATIONS.
    ------------------------------------------------
          0                 1           2             6    3     3       0.3291523433E-04      12    1    1       0.2970975288E-01      0.6215899968E-01      0.6176989296E-01      0.3291523433E-04

    ------------------------------------------------
       NWT REQUIRED            1 OUTER ITERATIONS 
       AND A TOTAL OF          2 INNER ITERATIONS.
    ------------------------------------------------

 OUTPUT CONTROL FOR STRESS PERIOD     17   TIME STEP     2
    SAVE BUDGET
 UBDSV1 SAVING "         STORAGE" ON UNIT7012 AT TIME STEP    2, STRESS PERIOD  17
 UBDSV2 SAVING "   CONSTANT HEAD" ON UNIT7012 AT TIME STEP    2, STRESS PERIOD  17
 UBDSV1 SAVING "FLOW RIGHT FACE " ON UNIT7012 AT TIME STEP    2, STRESS PERIOD  17
 UBDSV1 SAVING "FLOW FRONT FACE " ON UNIT7012 AT TIME STEP    2, STRESS PERIOD  17
 UBDSV1 SAVING "FLOW LOWER FACE " ON UNIT7012 AT TIME STEP    2, STRESS PERIOD  17
 UBDSV4 SAVING " GHOST-NODE HEAD" ON UNIT7012 AT TIME STEP    2, STRESS PERIOD  17
1
  VOLUMETRIC BUDGET FOR ENTIRE MODEL AT END OF TIME STEP    2 IN STRESS PERIOD     17
  ------------------------------------------------------------------------------

     CUMULATIVE VOLUMES      L**3       RATES FOR THIS TIME STEP      L**3/T
     ------------------                 ------------------------

           IN:                                      IN:
           ---                                      ---
             STORAGE =       35762.2109               STORAGE =          81.4584
       CONSTANT HEAD =           0.0000         CONSTANT HEAD =           0.0000
     GHOST-NODE HEAD =     2354230.7500       GHOST-NODE HEAD =        1518.1740

            TOTAL IN =     2389993.0000              TOTAL IN =        1599.6323

          OUT:                                     OUT:
          ----                                     ----
             STORAGE =     1629916.8750               STORAGE =           0.0000
       CONSTANT HEAD =           0.0000         CONSTANT HEAD =           0.0000
     GHOST-NODE HEAD =      760073.7500       GHOST-NODE HEAD =        1599.6476

           TOTAL OUT =     2389990.5000             TOTAL OUT =        1599.6476

            IN - OUT =           2.5000              IN - OUT =      -1.5259E-02

 PERCENT DISCREPANCY =           0.00     PERCENT DISCREPANCY =          -0.00






          TIME SUMMARY AT END OF TIME STEP     2 IN STRESS PERIOD     17
                    SECONDS     MINUTES      HOURS       DAYS        YEARS
                    -----------------------------------------------------------
   TIME STEP LENGTH 1.31414E+06  21902.      365.04      15.210     4.16427E-02
 STRESS PERIOD TIME 2.62829E+06  43805.      730.08      30.420     8.32854E-02
         TOTAL TIME 4.46809E+07 7.44681E+05  12411.      517.14      1.4159    
1
1
  FLUX ACROSS PARENT-CHILD INTERFACE AT TIME STEP  2 IN STRESS PERIOD   17
  ------------------------------------------------------------------------
 G-N FLUX        PARENT        CHILD         DIFFERENCE      % DIFFERENCE
  RATE IN:      1.5182E+03    1.5182E+03     7.4219E-02        0.0049
 RATE OUT:      1.5995E+03    1.5996E+03    -1.3586E-01       -0.0085
1
                            STRESS PERIOD NO.     18, LENGTH =   30.42000    
                            -----------------------------------------------

                              NUMBER OF TIME STEPS =     2

                               MULTIPLIER FOR DELT =     1.000

                            INITIAL TIME STEP SIZE =   15.21000    
 
 SOLVING FOR HEAD 
                                                   Max.-Head-Change                        Max.-Flux-Residual
  Residual-Control   Outer-Iter.   Inner-Iter.     Column Row Layer    Max.-Head-Change    Column Row Layer    Max.-Flux-Residual            L2-New               L2-Old           Solver-Max-Delh
          0                 1           5            12    3     4      -0.5326674180E-01      12    3    1      -0.2496392771E+02      0.5686351922E+02      0.6215899968E-01     -0.5326674180E-01
          0                 2           4            12    3     4       0.4599462347E-02      12    3    1       0.2508697414E+01      0.5684121543E+01      0.5686351922E+02      0.4599462347E-02
          0                 3           3            12    3     4       0.2301634276E-03      12    3    1       0.1188072781E+00      0.2710923868E+00      0.5684121543E+01      0.2301634276E-03
          0                 4           2            12    3     1       0.1423917585E-04      12    1    1       0.1566468761E-01      0.3371551828E-01      0.2710923868E+00      0.1423917585E-04

    ------------------------------------------------
       NWT REQUIRED            4 OUTER ITERATIONS 
       AND A TOTAL OF         14 INNER ITERATIONS.
    ------------------------------------------------
                                                   Max.-Head-Change                        Max.-Flux-Residual
  Residual-Control   Outer-Iter.   Inner-Iter.     Column Row Layer    Max.-Head-Change    Column Row Layer    Max.-Flux-Residual            L2-New               L2-Old           Solver-Max-Delh
          0                 1           5            12    1     3      -0.3037598403E-01      12    1    1      -0.2105245923E+02      0.4047645410E+02      0.3371551828E-01     -0.3037598403E-01
          0                 2           4            12    1     3       0.2622392556E-02      12    1    1       0.2116280718E+01      0.4060964283E+01      0.4047645410E+02      0.2622392556E-02
          0                 3           3            12    1     3       0.1314441220E-03      12    1    1       0.1141729831E+00      0.2062393730E+00      0.4060964283E+01      0.1314441220E-03
          0                 4           2             1    2     1       0.6572423490E-05       1    2    1       0.7660879637E-02      0.1882955884E-01      0.2062393730E+00      0.6572423490E-05

    ------------------------------------------------
       NWT REQUIRED            4 OUTER ITERATIONS 
       AND A TOTAL OF         14 INNER ITERATIONS.
    ------------------------------------------------
                                                   Max.-Head-Change                        Max.-Flux-Residual
  Residual-Control   Outer-Iter.   Inner-Iter.     Column Row Layer    Max.-Head-Change    Column Row Layer    Max.-Flux-Residual            L2-New               L2-Old           Solver-Max-Delh
          0                 1           5            12    1     2      -0.1538739925E-01      12    1    1      -0.1075465599E+02      0.2079942331E+02      0.1882955884E-01     -0.1538739925E-01
          0                 2           4            12    1     2       0.1329402557E-02      12    1    1       0.1077953293E+01      0.2081064511E+01      0.2079942331E+02      0.1329402557E-02
          0                 3           3            12    1     2       0.6657602750E-04      12    1    1       0.5868402566E-01      0.1081484542E+00      0.2081064511E+01      0.6657602750E-04

    ------------------------------------------------
       NWT REQUIRED            3 OUTER ITERATIONS 
       AND A TOTAL OF         12 INNER ITERATIONS.
    ------------------------------------------------
                                                   Max.-Head-Change                        Max.-Flux-Residual
  Residual-Control   Outer-Iter.   Inner-Iter.     Column Row Layer    Max.-Head-Change    Column Row Layer    Max.-Flux-Residual            L2-New               L2-Old           Solver-Max-Delh
          0                 1           4            12    1     2      -0.7112239055E-02      12    1    1      -0.4863793918E+01      0.1005269208E+02      0.1081484542E+00     -0.7112239055E-02
          0                 2           4            12    1     2       0.6143801655E-03      12    1    1       0.4881210702E+00      0.1011029065E+01      0.1005269208E+02      0.6143801655E-03
          0                 3           2            12    1     2       0.3053739241E-04      12    1    1       0.2232872986E-01      0.4844765748E-01      0.1011029065E+01      0.3053739241E-04

    ------------------------------------------------
       NWT REQUIRED            3 OUTER ITERATIONS 
       AND A TOTAL OF         10 INNER ITERATIONS.
    ------------------------------------------------
                                                   Max.-Head-Change                        Max.-Flux-Residual
  Residual-Control   Outer-Iter.   Inner-Iter.     Column Row Layer    Max.-Head-Change    Column Row Layer    Max.-Flux-Residual            L2-New               L2-Old           Solver-Max-Delh
          0                 1           4            12    1     2      -0.3031270450E-02      12    1    1      -0.1972078611E+01      0.4670051064E+01      0.4844765748E-01     -0.3031270450E-02
          0                 2           3            12    1     2       0.2617270891E-03      12    1    1       0.1989163652E+00      0.4638444817E+00      0.4670051064E+01      0.2617270891E-03
          0                 3           2            12    1     2       0.1307277436E-04      12    3    1       0.1019598308E-01      0.2853916329E-01      0.4638444817E+00      0.1307277436E-04

    ------------------------------------------------
       NWT REQUIRED            3 OUTER ITERATIONS 
       AND A TOTAL OF          9 INNER ITERATIONS.
    ------------------------------------------------
                                                   Max.-Head-Change                        Max.-Flux-Residual
  Residual-Control   Outer-Iter.   Inner-Iter.     Column Row Layer    Max.-Head-Change    Column Row Layer    Max.-Flux-Residual            L2-New               L2-Old           Solver-Max-Delh
          0                 1           4            11    1     2      -0.1191691928E-02      12    1    1      -0.6823165781E+00      0.2087463243E+01      0.2853916329E-01     -0.1191691928E-02
          0                 2           3            11    1     2       0.1031880437E-03      12    1    1       0.6904021371E-01      0.2075694725E+00      0.2087463243E+01      0.1031880437E-03
          0                 3           2            12    3     1       0.8210188887E-05      12    3    1       0.1289678141E-01      0.2468857236E-01      0.2075694725E+00      0.8210188887E-05

    ------------------------------------------------
       NWT REQUIRED            3 OUTER ITERATIONS 
       AND A TOTAL OF          9 INNER ITERATIONS.
    ------------------------------------------------
                                                   Max.-Head-Change                        Max.-Flux-Residual
  Residual-Control   Outer-Iter.   Inner-Iter.     Column Row Layer    Max.-Head-Change    Column Row Layer    Max.-Flux-Residual            L2-New               L2-Old           Solver-Max-Delh
          0                 1           3            10    3     2      -0.4429696888E-03      11    3    1      -0.2184130093E+00      0.8896288092E+00      0.2468857236E-01     -0.4429696888E-03
          0                 2           2             8    3     1       0.3803404379E-04       5    1    1       0.2419023972E-01      0.8842758890E-01      0.8896288092E+00      0.3803404379E-04

    ------------------------------------------------
       NWT REQUIRED            2 OUTER ITERATIONS 
       AND A TOTAL OF          5 INNER ITERATIONS.
    ------------------------------------------------
                                                   Max.-Head-Change                        Max.-Flux-Residual
  Residual-Control   Outer-Iter.   Inner-Iter.     Column Row Layer    Max.-Head-Change    Column Row Layer    Max.-Flux-Residual            L2-New               L2-Old           Solver-Max-Delh
          0                 1           3             7    3     1      -0.1887874145E-03       8    3    1      -0.9535599162E-01      0.3482511443E+00      0.8842758890E-01     -0.1887874145E-03
          0                 2           2             6    1     1       0.1578704017E-04       6    1    1       0.1291052927E-01      0.3586883309E-01      0.3482511443E+00      0.1578704017E-04

    ------------------------------------------------
       NWT REQUIRED            2 OUTER ITERATIONS 
       AND A TOTAL OF          5 INNER ITERATIONS.
    ------------------------------------------------
          0                 1           3             6    3     1      -0.7610645270E-04       8    3    1      -0.5073970172E-01      0.1321268757E+00      0.3586883309E-01     -0.7610645270E-04

    ------------------------------------------------
       NWT REQUIRED            1 OUTER ITERATIONS 
       AND A TOTAL OF          3 INNER ITERATIONS.
    ------------------------------------------------
          0                 1           2             8    3     3       0.3480930688E-04      12    1    1       0.2869765309E-01      0.4603534620E-01      0.1321268757E+00      0.3480930688E-04

    ------------------------------------------------
       NWT REQUIRED            1 OUTER ITERATIONS 
       AND A TOTAL OF          2 INNER ITERATIONS.
    ------------------------------------------------
          0                 1           2             6    3     3       0.2955336355E-04      12    2    1       0.1778617478E-01      0.3716584817E-01      0.4603534620E-01      0.2955336355E-04

    ------------------------------------------------
       NWT REQUIRED            1 OUTER ITERATIONS 
       AND A TOTAL OF          2 INNER ITERATIONS.
    ------------------------------------------------
          0                 1           2            12    3     3       0.2638490989E-04      11    1    1       0.1462257211E-01      0.3151358449E-01      0.3716584817E-01      0.2638490989E-04

    ------------------------------------------------
       NWT REQUIRED            1 OUTER ITERATIONS 
       AND A TOTAL OF          2 INNER ITERATIONS.
    ------------------------------------------------

 OUTPUT CONTROL FOR STRESS PERIOD     18   TIME STEP     1
    SAVE BUDGET
 UBDSV1 SAVING "         STORAGE" ON UNIT7012 AT TIME STEP    1, STRESS PERIOD  18
 UBDSV2 SAVING "   CONSTANT HEAD" ON UNIT7012 AT TIME STEP    1, STRESS PERIOD  18
 UBDSV1 SAVING "FLOW RIGHT FACE " ON UNIT7012 AT TIME STEP    1, STRESS PERIOD  18
 UBDSV1 SAVING "FLOW FRONT FACE " ON UNIT7012 AT TIME STEP    1, STRESS PERIOD  18
 UBDSV1 SAVING "FLOW LOWER FACE " ON UNIT7012 AT TIME STEP    1, STRESS PERIOD  18
 UBDSV4 SAVING " GHOST-NODE HEAD" ON UNIT7012 AT TIME STEP    1, STRESS PERIOD  18
1
  FLUX ACROSS PARENT-CHILD INTERFACE AT TIME STEP  1 IN STRESS PERIOD   18
  ------------------------------------------------------------------------
 G-N FLUX        PARENT        CHILD         DIFFERENCE      % DIFFERENCE
  RATE IN:      1.5529E+03    1.5529E+03     3.5767E-02        0.0023
 RATE OUT:      1.6115E+03    1.6116E+03    -5.7373E-02       -0.0036
 
 SOLVING FOR HEAD 
                                                   Max.-Head-Change                        Max.-Flux-Residual
  Residual-Control   Outer-Iter.   Inner-Iter.     Column Row Layer    Max.-Head-Change    Column Row Layer    Max.-Flux-Residual            L2-New               L2-Old           Solver-Max-Delh
          0                 1           5            12    3     4      -0.6078186336E-01       1    3    1      -0.3651397545E+02      0.8202887954E+02      0.3151358449E-01     -0.6078186336E-01
          0                 2           4            12    3     4       0.5247854060E-02       1    3    1       0.3633249553E+01      0.8193164188E+01      0.8202887954E+02      0.5247854060E-02
          0                 3           3            12    3     4       0.2628436597E-03       1    3    1       0.1896662569E+00      0.4154512984E+00      0.8193164188E+01      0.2628436597E-03
          0                 4           2            12    3     4       0.1327963575E-04      12    3    1       0.1226340790E-01      0.2988170830E-01      0.4154512984E+00      0.1327963575E-04

    ------------------------------------------------
       NWT REQUIRED            4 OUTER ITERATIONS 
       AND A TOTAL OF         14 INNER ITERATIONS.
    ------------------------------------------------
                                                   Max.-Head-Change                        Max.-Flux-Residual
  Residual-Control   Outer-Iter.   Inner-Iter.     Column Row Layer    Max.-Head-Change    Column Row Layer    Max.-Flux-Residual            L2-New               L2-Old           Solver-Max-Delh
          0                 1           5            12    1     2      -0.3498006706E-01      12    1    1      -0.2654940908E+02      0.5635004731E+02      0.2988170830E-01     -0.3498006706E-01
          0                 2           4            12    1     2       0.3022443067E-02      12    1    1       0.2668699915E+01      0.5643615039E+01      0.5635004731E+02      0.3022443067E-02
          0                 3           3            12    1     2       0.1516922375E-03      12    1    1       0.1371328324E+00      0.2886398159E+00      0.5643615039E+01      0.1516922375E-03
          0                 4           2             2    3     1       0.7811675650E-05       2    3    1       0.7603131759E-02      0.2132793049E-01      0.2886398159E+00      0.7811675650E-05

    ------------------------------------------------
       NWT REQUIRED            4 OUTER ITERATIONS 
       AND A TOTAL OF         14 INNER ITERATIONS.
    ------------------------------------------------
                                                   Max.-Head-Change                        Max.-Flux-Residual
  Residual-Control   Outer-Iter.   Inner-Iter.     Column Row Layer    Max.-Head-Change    Column Row Layer    Max.-Flux-Residual            L2-New               L2-Old           Solver-Max-Delh
          0                 1           5            12    1     2      -0.1747292668E-01      12    1    1      -0.1320714375E+02      0.2786111704E+02      0.2132793049E-01     -0.1747292668E-01
          0                 2           4            12    1     2       0.1510143779E-02      12    1    1       0.1325536429E+01      0.2796708638E+01      0.2786111704E+02      0.1510143779E-02
          0                 3           3            12    1     2       0.7545731318E-04      12    1    1       0.6776244933E-01      0.1412410199E+00      0.2796708638E+01      0.7545731318E-04

    ------------------------------------------------
       NWT REQUIRED            3 OUTER ITERATIONS 
       AND A TOTAL OF         12 INNER ITERATIONS.
    ------------------------------------------------
                                                   Max.-Head-Change                        Max.-Flux-Residual
  Residual-Control   Outer-Iter.   Inner-Iter.     Column Row Layer    Max.-Head-Change    Column Row Layer    Max.-Flux-Residual            L2-New               L2-Old           Solver-Max-Delh
          0                 1           4            12    1     2      -0.8024402577E-02      12    1    1      -0.5928435626E+01      0.1287264003E+02      0.1412410199E+00     -0.8024402577E-02
          0                 2           4            12    1     2       0.6929582854E-03      12    1    1       0.5956756194E+00      0.1289393905E+01      0.1287264003E+02      0.6929582854E-03
          0                 3           2            12    1     2       0.3434526866E-04      12    1    1       0.2812767000E-01      0.6305746757E-01      0.1289393905E+01      0.3434526866E-04

    ------------------------------------------------
       NWT REQUIRED            3 OUTER ITERATIONS 
       AND A TOTAL OF         10 INNER ITERATIONS.
    ------------------------------------------------
                                                   Max.-Head-Change                        Max.-Flux-Residual
  Residual-Control   Outer-Iter.   Inner-Iter.     Column Row Layer    Max.-Head-Change    Column Row Layer    Max.-Flux-Residual            L2-New               L2-Old           Solver-Max-Delh
          0                 1           4            12    1     2      -0.3391713646E-02      12    1    1      -0.2375559692E+01      0.5566841501E+01      0.6305746757E-01     -0.3391713646E-02
          0                 2           3            12    1     2       0.2927370113E-03      12    1    1       0.2416466793E+00      0.5568230106E+00      0.5566841501E+01      0.2927370113E-03
          0                 3           2            12    1     2       0.1450820046E-04      10    1    1       0.1414615917E-01      0.3237409161E-01      0.5568230106E+00      0.1450820046E-04

    ------------------------------------------------
       NWT REQUIRED            3 OUTER ITERATIONS 
       AND A TOTAL OF          9 INNER ITERATIONS.
    ------------------------------------------------
                                                   Max.-Head-Change                        Max.-Flux-Residual
  Residual-Control   Outer-Iter.   Inner-Iter.     Column Row Layer    Max.-Head-Change    Column Row Layer    Max.-Flux-Residual            L2-New               L2-Old           Solver-Max-Delh
          0                 1           4            12    3     3      -0.1328958512E-02      12    1    1      -0.7927189501E+00      0.2198075809E+01      0.3237409161E-01     -0.1328958512E-02
          0                 2           3            12    3     3       0.1144463992E-03      12    1    1       0.7509413734E-01      0.2122757547E+00      0.2198075809E+01      0.1144463992E-03
          0                 3           2            10    1     1       0.7845744443E-05      12    3    1       0.7176921295E-02      0.2110048676E-01      0.2122757547E+00      0.7845744443E-05

    ------------------------------------------------
       NWT REQUIRED            3 OUTER ITERATIONS 
       AND A TOTAL OF          9 INNER ITERATIONS.
    ------------------------------------------------
                                                   Max.-Head-Change                        Max.-Flux-Residual
  Residual-Control   Outer-Iter.   Inner-Iter.     Column Row Layer    Max.-Head-Change    Column Row Layer    Max.-Flux-Residual            L2-New               L2-Old           Solver-Max-Delh
          0                 1           3            12    3     3      -0.4909922724E-03      12    3    1      -0.2645501523E+00      0.7908872724E+00      0.2110048676E-01     -0.4909922724E-03
          0                 2           2            12    3     3       0.4220981482E-04       8    3    1       0.2243360470E-01      0.7954008258E-01      0.7908872724E+00      0.4220981482E-04

    ------------------------------------------------
       NWT REQUIRED            2 OUTER ITERATIONS 
       AND A TOTAL OF          5 INNER ITERATIONS.
    ------------------------------------------------
                                                   Max.-Head-Change                        Max.-Flux-Residual
  Residual-Control   Outer-Iter.   Inner-Iter.     Column Row Layer    Max.-Head-Change    Column Row Layer    Max.-Flux-Residual            L2-New               L2-Old           Solver-Max-Delh
          0                 1           3             9    3     2      -0.1500988576E-03      10    3    1      -0.9453955345E-01      0.2382529170E+00      0.7954008258E-01     -0.1500988576E-03
          0                 2           2            10    3     1       0.1305552884E-04      10    3    1       0.1289570483E-01      0.3193089933E-01      0.2382529170E+00      0.1305552884E-04

    ------------------------------------------------
       NWT REQUIRED            2 OUTER ITERATIONS 
       AND A TOTAL OF          5 INNER ITERATIONS.
    ------------------------------------------------
          0                 1           2             7    3     1      -0.4321567779E-04      12    1    1       0.4484220984E-01      0.1183699649E+00      0.3193089933E-01     -0.4321567779E-04

    ------------------------------------------------
       NWT REQUIRED            1 OUTER ITERATIONS 
       AND A TOTAL OF          2 INNER ITERATIONS.
    ------------------------------------------------
          0                 1           2            10    1     2       0.4065042257E-04      12    1    1       0.3832820483E-01      0.6631616865E-01      0.1183699649E+00      0.4065042257E-04

    ------------------------------------------------
       NWT REQUIRED            1 OUTER ITERATIONS 
       AND A TOTAL OF          2 INNER ITERATIONS.
    ------------------------------------------------
          0                 1           2            10    3     3       0.3924142088E-04       1    1    1       0.2655590221E-01      0.6069529674E-01      0.6631616865E-01      0.3924142088E-04

    ------------------------------------------------
       NWT REQUIRED            1 OUTER ITERATIONS 
       AND A TOTAL OF          2 INNER ITERATIONS.
    ------------------------------------------------
          0                 1           2             5    3     2       0.2555733660E-04       1    1    1       0.1784926211E-01      0.4273982949E-01      0.6069529674E-01      0.2555733660E-04

    ------------------------------------------------
       NWT REQUIRED            1 OUTER ITERATIONS 
       AND A TOTAL OF          2 INNER ITERATIONS.
    ------------------------------------------------

 OUTPUT CONTROL FOR STRESS PERIOD     18   TIME STEP     2
    PRINT BUDGET
    SAVE HEAD FOR ALL LAYERS
    SAVE BUDGET
 UBDSV1 SAVING "         STORAGE" ON UNIT7012 AT TIME STEP    2, STRESS PERIOD  18
 UBDSV2 SAVING "   CONSTANT HEAD" ON UNIT7012 AT TIME STEP    2, STRESS PERIOD  18
 UBDSV1 SAVING "FLOW RIGHT FACE " ON UNIT7012 AT TIME STEP    2, STRESS PERIOD  18
 UBDSV1 SAVING "FLOW FRONT FACE " ON UNIT7012 AT TIME STEP    2, STRESS PERIOD  18
 UBDSV1 SAVING "FLOW LOWER FACE " ON UNIT7012 AT TIME STEP    2, STRESS PERIOD  18
 UBDSV4 SAVING " GHOST-NODE HEAD" ON UNIT7012 AT TIME STEP    2, STRESS PERIOD  18

 HEAD WILL BE SAVED ON UNIT 2212 AT END OF TIME STEP     2, STRESS PERIOD     18
1
  VOLUMETRIC BUDGET FOR ENTIRE MODEL AT END OF TIME STEP    2 IN STRESS PERIOD     18
  ------------------------------------------------------------------------------

     CUMULATIVE VOLUMES      L**3       RATES FOR THIS TIME STEP      L**3/T
     ------------------                 ------------------------

           IN:                                      IN:
           ---                                      ---
             STORAGE =       38044.5195               STORAGE =          91.3459
       CONSTANT HEAD =           0.0000         CONSTANT HEAD =           0.0000
     GHOST-NODE HEAD =     2401492.5000       GHOST-NODE HEAD =        1554.4210

            TOTAL IN =     2439537.0000              TOTAL IN =        1645.7668

          OUT:                                     OUT:
          ----                                     ----
             STORAGE =     1629916.8750               STORAGE =           0.0000
       CONSTANT HEAD =           0.0000         CONSTANT HEAD =           0.0000
     GHOST-NODE HEAD =      809618.0625       GHOST-NODE HEAD =        1645.7748

           TOTAL OUT =     2439535.0000             TOTAL OUT =        1645.7748

            IN - OUT =           2.0000              IN - OUT =      -7.9346E-03

 PERCENT DISCREPANCY =           0.00     PERCENT DISCREPANCY =          -0.00






          TIME SUMMARY AT END OF TIME STEP     2 IN STRESS PERIOD     18
                    SECONDS     MINUTES      HOURS       DAYS        YEARS
                    -----------------------------------------------------------
   TIME STEP LENGTH 1.31414E+06  21902.      365.04      15.210     4.16427E-02
 STRESS PERIOD TIME 2.62829E+06  43805.      730.08      30.420     8.32854E-02
         TOTAL TIME 4.73092E+07 7.88486E+05  13141.      547.56      1.4991    
1
1
  FLUX ACROSS PARENT-CHILD INTERFACE AT TIME STEP  2 IN STRESS PERIOD   18
  ------------------------------------------------------------------------
 G-N FLUX        PARENT        CHILD         DIFFERENCE      % DIFFERENCE
  RATE IN:      1.5544E+03    1.5544E+03     1.1597E-02        0.0007
 RATE OUT:      1.6457E+03    1.6458E+03    -6.6650E-02       -0.0040
1
                            STRESS PERIOD NO.     19, LENGTH =   30.42000    
                            -----------------------------------------------

                              NUMBER OF TIME STEPS =     2

                               MULTIPLIER FOR DELT =     1.000

                            INITIAL TIME STEP SIZE =   15.21000    
 
 SOLVING FOR HEAD 
                                                   Max.-Head-Change                        Max.-Flux-Residual
  Residual-Control   Outer-Iter.   Inner-Iter.     Column Row Layer    Max.-Head-Change    Column Row Layer    Max.-Flux-Residual            L2-New               L2-Old           Solver-Max-Delh
          0                 1           6            12    3     4      -0.6839871663E-01       1    3    1      -0.5359083584E+02      0.1189759934E+03      0.4273982949E-01     -0.6839871663E-01
          0                 2           4            12    3     4       0.5906136013E-02       1    3    1       0.5331285681E+01      0.1188239882E+02      0.1189759934E+03      0.5906136013E-02
          0                 3           3            12    3     4       0.2959770452E-03       1    3    1       0.2742722871E+00      0.5951902413E+00      0.1188239882E+02      0.2959770452E-03
          0                 4           2             1    2     1       0.1639386496E-04       1    1    1       0.1613489166E-01      0.3397604753E-01      0.5951902413E+00      0.1639386496E-04

    ------------------------------------------------
       NWT REQUIRED            4 OUTER ITERATIONS 
       AND A TOTAL OF         15 INNER ITERATIONS.
    ------------------------------------------------
                                                   Max.-Head-Change                        Max.-Flux-Residual
  Residual-Control   Outer-Iter.   Inner-Iter.     Column Row Layer    Max.-Head-Change    Column Row Layer    Max.-Flux-Residual            L2-New               L2-Old           Solver-Max-Delh
          0                 1           5            11    1     2      -0.4585830276E-01      12    1    1      -0.3688932447E+02      0.9324134009E+02      0.3397604753E-01     -0.4585830276E-01
          0                 2           4            11    1     2       0.3961461023E-02      12    1    1       0.3711037228E+01      0.9318285915E+01      0.9324134009E+02      0.3961461023E-02
          0                 3           3            11    1     2       0.1982094941E-03      12    1    1       0.1823933576E+00      0.4637840966E+00      0.9318285915E+01      0.1982094941E-03
          0                 4           2            12    1     1       0.1245546899E-04      12    1    1       0.1395937864E-01      0.3219566624E-01      0.4637840966E+00      0.1245546899E-04

    ------------------------------------------------
       NWT REQUIRED            4 OUTER ITERATIONS 
       AND A TOTAL OF         14 INNER ITERATIONS.
    ------------------------------------------------
                                                   Max.-Head-Change                        Max.-Flux-Residual
  Residual-Control   Outer-Iter.   Inner-Iter.     Column Row Layer    Max.-Head-Change    Column Row Layer    Max.-Flux-Residual            L2-New               L2-Old           Solver-Max-Delh
          0                 1           5            11    1     2      -0.2178606346E-01      12    1    1      -0.1723370644E+02      0.4421118418E+02      0.3219566624E-01     -0.2178606346E-01
          0                 2           4            11    1     2       0.1882609294E-02      12    1    1       0.1743220309E+01      0.4422789758E+01      0.4421118418E+02      0.1882609294E-02
          0                 3           3            11    1     2       0.9437217694E-04      12    1    1       0.8182206005E-01      0.2187111938E+00      0.4422789758E+01      0.9437217694E-04

    ------------------------------------------------
       NWT REQUIRED            3 OUTER ITERATIONS 
       AND A TOTAL OF         12 INNER ITERATIONS.
    ------------------------------------------------
                                                   Max.-Head-Change                        Max.-Flux-Residual
  Residual-Control   Outer-Iter.   Inner-Iter.     Column Row Layer    Max.-Head-Change    Column Row Layer    Max.-Flux-Residual            L2-New               L2-Old           Solver-Max-Delh
          0                 1           5            12    1     2      -0.9543447564E-02      12    1    1      -0.7314529355E+01      0.1964083101E+02      0.2187111938E+00     -0.9543447564E-02
          0                 2           4            12    1     2       0.8249259042E-03      12    1    1       0.7389906717E+00      0.1970421472E+01      0.1964083101E+02      0.8249259042E-03
          0                 3           3            12    1     2       0.4111822206E-04      12    1    1       0.3701225651E-01      0.9710490796E-01      0.1970421472E+01      0.4111822206E-04

    ------------------------------------------------
       NWT REQUIRED            3 OUTER ITERATIONS 
       AND A TOTAL OF         12 INNER ITERATIONS.
    ------------------------------------------------
                                                   Max.-Head-Change                        Max.-Flux-Residual
  Residual-Control   Outer-Iter.   Inner-Iter.     Column Row Layer    Max.-Head-Change    Column Row Layer    Max.-Flux-Residual            L2-New               L2-Old           Solver-Max-Delh
          0                 1           4            12    3     2      -0.4271941513E-02      12    3    1      -0.3067491694E+01      0.8380163402E+01      0.9710490796E-01     -0.4271941513E-02
          0                 2           3            12    3     2       0.3685832289E-03      12    3    1       0.3065417691E+00      0.8387387584E+00      0.8380163402E+01      0.3685832289E-03
          0                 3           2            12    3     2       0.1873583386E-04      12    3    1       0.1745405918E-01      0.4328398197E-01      0.8387387584E+00      0.1873583386E-04

    ------------------------------------------------
       NWT REQUIRED            3 OUTER ITERATIONS 
       AND A TOTAL OF          9 INNER ITERATIONS.
    ------------------------------------------------
                                                   Max.-Head-Change                        Max.-Flux-Residual
  Residual-Control   Outer-Iter.   Inner-Iter.     Column Row Layer    Max.-Head-Change    Column Row Layer    Max.-Flux-Residual            L2-New               L2-Old           Solver-Max-Delh
          0                 1           4            12    3     2      -0.1870422291E-02      12    3    1      -0.1478469703E+01      0.3476078609E+01      0.4328398197E-01     -0.1870422291E-02
          0                 2           3            12    3     2       0.1610572358E-03      12    3    1       0.1464167785E+00      0.3435719879E+00      0.3476078609E+01      0.1610572358E-03
          0                 3           2            12    3     1       0.1219957631E-04      12    3    1       0.1558255637E-01      0.3311825315E-01      0.3435719879E+00      0.1219957631E-04

    ------------------------------------------------
       NWT REQUIRED            3 OUTER ITERATIONS 
       AND A TOTAL OF          9 INNER ITERATIONS.
    ------------------------------------------------
                                                   Max.-Head-Change                        Max.-Flux-Residual
  Residual-Control   Outer-Iter.   Inner-Iter.     Column Row Layer    Max.-Head-Change    Column Row Layer    Max.-Flux-Residual            L2-New               L2-Old           Solver-Max-Delh
          0                 1           4            12    3     2      -0.7374343764E-03      12    3    1      -0.6196726202E+00      0.1337821274E+01      0.3311825315E-01     -0.7374343764E-03
          0                 2           3            12    3     2       0.6342537351E-04      12    3    1       0.6222350404E-01      0.1341526586E+00      0.1337821274E+01      0.6342537351E-04

    ------------------------------------------------
       NWT REQUIRED            2 OUTER ITERATIONS 
       AND A TOTAL OF          7 INNER ITERATIONS.
    ------------------------------------------------
                                                   Max.-Head-Change                        Max.-Flux-Residual
  Residual-Control   Outer-Iter.   Inner-Iter.     Column Row Layer    Max.-Head-Change    Column Row Layer    Max.-Flux-Residual            L2-New               L2-Old           Solver-Max-Delh
          0                 1           3            12    3     2      -0.2301548998E-03      12    3    1      -0.2278175212E+00      0.4680984948E+00      0.1341526586E+00     -0.2301548998E-03
          0                 2           2            12    3     2       0.1934165724E-04      12    3    1       0.2195647696E-01      0.4849732066E-01      0.4680984948E+00      0.1934165724E-04

    ------------------------------------------------
       NWT REQUIRED            2 OUTER ITERATIONS 
       AND A TOTAL OF          5 INNER ITERATIONS.
    ------------------------------------------------
          0                 1           3             9    1     1       0.7148990087E-04       9    1    1       0.6463230611E-01      0.1570916981E+00      0.4849732066E-01      0.7148990087E-04

    ------------------------------------------------
       NWT REQUIRED            1 OUTER ITERATIONS 
       AND A TOTAL OF          3 INNER ITERATIONS.
    ------------------------------------------------
          0                 1           2             7    3     2       0.7087836174E-04       4    3    1       0.3934341017E-01      0.1133011159E+00      0.1570916981E+00      0.7087836174E-04

    ------------------------------------------------
       NWT REQUIRED            1 OUTER ITERATIONS 
       AND A TOTAL OF          2 INNER ITERATIONS.
    ------------------------------------------------
          0                 1           3            10    3     2       0.5465908883E-04       1    3    1       0.3608309885E-01      0.1017384596E+00      0.1133011159E+00      0.5465908883E-04

    ------------------------------------------------
       NWT REQUIRED            1 OUTER ITERATIONS 
       AND A TOTAL OF          3 INNER ITERATIONS.
    ------------------------------------------------

 OUTPUT CONTROL FOR STRESS PERIOD     19   TIME STEP     1
    SAVE BUDGET
 UBDSV1 SAVING "         STORAGE" ON UNIT7012 AT TIME STEP    1, STRESS PERIOD  19
 UBDSV2 SAVING "   CONSTANT HEAD" ON UNIT7012 AT TIME STEP    1, STRESS PERIOD  19
 UBDSV1 SAVING "FLOW RIGHT FACE " ON UNIT7012 AT TIME STEP    1, STRESS PERIOD  19
 UBDSV1 SAVING "FLOW FRONT FACE " ON UNIT7012 AT TIME STEP    1, STRESS PERIOD  19
 UBDSV1 SAVING "FLOW LOWER FACE " ON UNIT7012 AT TIME STEP    1, STRESS PERIOD  19
 UBDSV4 SAVING " GHOST-NODE HEAD" ON UNIT7012 AT TIME STEP    1, STRESS PERIOD  19
1
  FLUX ACROSS PARENT-CHILD INTERFACE AT TIME STEP  1 IN STRESS PERIOD   19
  ------------------------------------------------------------------------
 G-N FLUX        PARENT        CHILD         DIFFERENCE      % DIFFERENCE
  RATE IN:      1.5031E+03    1.5029E+03     1.4270E-01        0.0095
 RATE OUT:      1.6490E+03    1.6493E+03    -2.3132E-01       -0.0140
 
 SOLVING FOR HEAD 
                                                   Max.-Head-Change                        Max.-Flux-Residual
  Residual-Control   Outer-Iter.   Inner-Iter.     Column Row Layer    Max.-Head-Change    Column Row Layer    Max.-Flux-Residual            L2-New               L2-Old           Solver-Max-Delh
          0                 1           6            12    3     4      -0.7286437742E-01       1    3    1      -0.4858194597E+02      0.1195735319E+03      0.1017384596E+00     -0.7286437742E-01
          0                 2           4            12    3     4       0.6291817937E-02       1    3    1       0.4839398939E+01      0.1195534507E+02      0.1195735319E+03      0.6291817937E-02
          0                 3           3            12    3     4       0.3152820645E-03       1    3    1       0.2435346998E+00      0.6008636238E+00      0.1195534507E+02      0.3152820645E-03
          0                 4           2            12    3     4       0.1596052605E-04       2    3    1       0.1257316861E-01      0.3260093377E-01      0.6008636238E+00      0.1596052605E-04

    ------------------------------------------------
       NWT REQUIRED            4 OUTER ITERATIONS 
       AND A TOTAL OF         15 INNER ITERATIONS.
    ------------------------------------------------
                                                   Max.-Head-Change                        Max.-Flux-Residual
  Residual-Control   Outer-Iter.   Inner-Iter.     Column Row Layer    Max.-Head-Change    Column Row Layer    Max.-Flux-Residual            L2-New               L2-Old           Solver-Max-Delh
          0                 1           5             9    1     2      -0.4568321534E-01      12    1    1      -0.3439469860E+02      0.9398112134E+02      0.3260093377E-01     -0.4568321534E-01
          0                 2           4             9    1     2       0.3944534477E-02      12    1    1       0.3467753472E+01      0.9398624667E+01      0.9398112134E+02      0.3944534477E-02
          0                 3           3             8    1     2       0.1977427238E-03      12    1    1       0.1672031933E+00      0.4706456058E+00      0.9398624667E+01      0.1977427238E-03
          0                 4           2             9    1     2       0.9468351242E-05      12    1    1       0.1241305773E-01      0.2566862822E-01      0.4706456058E+00      0.9468351242E-05

    ------------------------------------------------
       NWT REQUIRED            4 OUTER ITERATIONS 
       AND A TOTAL OF         14 INNER ITERATIONS.
    ------------------------------------------------
                                                   Max.-Head-Change                        Max.-Flux-Residual
  Residual-Control   Outer-Iter.   Inner-Iter.     Column Row Layer    Max.-Head-Change    Column Row Layer    Max.-Flux-Residual            L2-New               L2-Old           Solver-Max-Delh
          0                 1           5             9    1     2      -0.2248221343E-01      12    1    1      -0.1673620101E+02      0.4627012966E+02      0.2566862822E-01     -0.2248221343E-01
          0                 2           4             9    1     2       0.1941842652E-02      12    1    1       0.1690414060E+01      0.4632952596E+01      0.4627012966E+02      0.1941842652E-02
          0                 3           3             8    1     2       0.9741672074E-04      12    1    1       0.8748414839E-01      0.2370568158E+00      0.4632952596E+01      0.9741672074E-04

    ------------------------------------------------
       NWT REQUIRED            3 OUTER ITERATIONS 
       AND A TOTAL OF         12 INNER ITERATIONS.
    ------------------------------------------------
                                                   Max.-Head-Change                        Max.-Flux-Residual
  Residual-Control   Outer-Iter.   Inner-Iter.     Column Row Layer    Max.-Head-Change    Column Row Layer    Max.-Flux-Residual            L2-New               L2-Old           Solver-Max-Delh
          0                 1           5            10    1     2      -0.1002728449E-01      12    1    1      -0.7463975940E+01      0.2130829233E+02      0.2370568158E+00     -0.1002728449E-01
          0                 2           4            10    1     2       0.8664572708E-03      12    1    1       0.7523332954E+00      0.2132250086E+01      0.2130829233E+02      0.8664572708E-03
          0                 3           3            10    1     1       0.4447279813E-04      12    1    1       0.3707380267E-01      0.1126174335E+00      0.2132250086E+01      0.4447279813E-04

    ------------------------------------------------
       NWT REQUIRED            3 OUTER ITERATIONS 
       AND A TOTAL OF         12 INNER ITERATIONS.
    ------------------------------------------------
                                                   Max.-Head-Change                        Max.-Flux-Residual
  Residual-Control   Outer-Iter.   Inner-Iter.     Column Row Layer    Max.-Head-Change    Column Row Layer    Max.-Flux-Residual            L2-New               L2-Old           Solver-Max-Delh
          0                 1           4            12    3     2      -0.4433247287E-02      12    3    1      -0.3093116153E+01      0.9346209474E+01      0.1126174335E+00     -0.4433247287E-02
          0                 2           3            12    3     2       0.3826131605E-03      12    1    1       0.3092375455E+00      0.9367774064E+00      0.9346209474E+01      0.3826131605E-03
          0                 3           2            12    3     2       0.1874358933E-04       7    3    1       0.1256873668E-01      0.3979056212E-01      0.9367774064E+00      0.1874358933E-04

    ------------------------------------------------
       NWT REQUIRED            3 OUTER ITERATIONS 
       AND A TOTAL OF          9 INNER ITERATIONS.
    ------------------------------------------------
                                                   Max.-Head-Change                        Max.-Flux-Residual
  Residual-Control   Outer-Iter.   Inner-Iter.     Column Row Layer    Max.-Head-Change    Column Row Layer    Max.-Flux-Residual            L2-New               L2-Old           Solver-Max-Delh
          0                 1           4            12    3     2      -0.1992245959E-02      12    3    1      -0.1477943301E+01      0.3935556057E+01      0.3979056212E-01     -0.1992245959E-02
          0                 2           3            12    3     2       0.1716316392E-03      12    3    1       0.1455005307E+00      0.3918672160E+00      0.3935556057E+01      0.1716316392E-03
          0                 3           2            10    3     1       0.1048032524E-04       1    3    1       0.1218531409E-01      0.2826303371E-01      0.3918672160E+00      0.1048032524E-04

    ------------------------------------------------
       NWT REQUIRED            3 OUTER ITERATIONS 
       AND A TOTAL OF          9 INNER ITERATIONS.
    ------------------------------------------------
                                                   Max.-Head-Change                        Max.-Flux-Residual
  Residual-Control   Outer-Iter.   Inner-Iter.     Column Row Layer    Max.-Head-Change    Column Row Layer    Max.-Flux-Residual            L2-New               L2-Old           Solver-Max-Delh
          0                 1           4            12    3     2      -0.8079967564E-03      12    3    1      -0.6429181837E+00      0.1557019103E+01      0.2826303371E-01     -0.8079967564E-03
          0                 2           3            12    3     2       0.7010827561E-04      12    3    1       0.6847712849E-01      0.1598206207E+00      0.1557019103E+01      0.7010827561E-04

    ------------------------------------------------
       NWT REQUIRED            2 OUTER ITERATIONS 
       AND A TOTAL OF          7 INNER ITERATIONS.
    ------------------------------------------------
                                                   Max.-Head-Change                        Max.-Flux-Residual
  Residual-Control   Outer-Iter.   Inner-Iter.     Column Row Layer    Max.-Head-Change    Column Row Layer    Max.-Flux-Residual            L2-New               L2-Old           Solver-Max-Delh
          0                 1           3            12    3     2      -0.2722192697E-03      12    3    1      -0.2326288428E+00      0.5094370405E+00      0.1598206207E+00     -0.2722192697E-03
          0                 2           2            12    3     2       0.2367712346E-04      12    3    1       0.2480657102E-01      0.5165048424E-01      0.5094370405E+00      0.2367712346E-04

    ------------------------------------------------
       NWT REQUIRED            2 OUTER ITERATIONS 
       AND A TOTAL OF          5 INNER ITERATIONS.
    ------------------------------------------------
          0                 1           3            12    3     2      -0.6844679337E-04      12    3    1      -0.6469428987E-01      0.1479921740E+00      0.5165048424E-01     -0.6844679337E-04

    ------------------------------------------------
       NWT REQUIRED            1 OUTER ITERATIONS 
       AND A TOTAL OF          3 INNER ITERATIONS.
    ------------------------------------------------
          0                 1           2             7    3     2       0.5984541862E-04       5    3    1       0.3861968248E-01      0.1071429814E+00      0.1479921740E+00      0.5984541862E-04

    ------------------------------------------------
       NWT REQUIRED            1 OUTER ITERATIONS 
       AND A TOTAL OF          2 INNER ITERATIONS.
    ------------------------------------------------
          0                 1           2             7    3     2       0.5161925559E-04       1    3    1       0.3337496688E-01      0.8499176007E-01      0.1071429814E+00      0.5161925559E-04

    ------------------------------------------------
       NWT REQUIRED            1 OUTER ITERATIONS 
       AND A TOTAL OF          2 INNER ITERATIONS.
    ------------------------------------------------

 OUTPUT CONTROL FOR STRESS PERIOD     19   TIME STEP     2
    SAVE BUDGET
 UBDSV1 SAVING "         STORAGE" ON UNIT7012 AT TIME STEP    2, STRESS PERIOD  19
 UBDSV2 SAVING "   CONSTANT HEAD" ON UNIT7012 AT TIME STEP    2, STRESS PERIOD  19
 UBDSV1 SAVING "FLOW RIGHT FACE " ON UNIT7012 AT TIME STEP    2, STRESS PERIOD  19
 UBDSV1 SAVING "FLOW FRONT FACE " ON UNIT7012 AT TIME STEP    2, STRESS PERIOD  19
 UBDSV1 SAVING "FLOW LOWER FACE " ON UNIT7012 AT TIME STEP    2, STRESS PERIOD  19
 UBDSV4 SAVING " GHOST-NODE HEAD" ON UNIT7012 AT TIME STEP    2, STRESS PERIOD  19
1
  VOLUMETRIC BUDGET FOR ENTIRE MODEL AT END OF TIME STEP    2 IN STRESS PERIOD     19
  ------------------------------------------------------------------------------

     CUMULATIVE VOLUMES      L**3       RATES FOR THIS TIME STEP      L**3/T
     ------------------                 ------------------------

           IN:                                      IN:
           ---                                      ---
             STORAGE =       42612.1914               STORAGE =         154.0513
       CONSTANT HEAD =           0.0000         CONSTANT HEAD =           0.0000
     GHOST-NODE HEAD =     2447151.2500       GHOST-NODE HEAD =        1498.9564

            TOTAL IN =     2489763.5000              TOTAL IN =        1653.0077

          OUT:                                     OUT:
          ----                                     ----
             STORAGE =     1629916.8750               STORAGE =           0.0000
       CONSTANT HEAD =           0.0000         CONSTANT HEAD =           0.0000
     GHOST-NODE HEAD =      859845.8750       GHOST-NODE HEAD =        1653.0281

           TOTAL OUT =     2489762.7500             TOTAL OUT =        1653.0281

            IN - OUT =           0.7500              IN - OUT =      -2.0386E-02

 PERCENT DISCREPANCY =           0.00     PERCENT DISCREPANCY =          -0.00






          TIME SUMMARY AT END OF TIME STEP     2 IN STRESS PERIOD     19
                    SECONDS     MINUTES      HOURS       DAYS        YEARS
                    -----------------------------------------------------------
   TIME STEP LENGTH 1.31414E+06  21902.      365.04      15.210     4.16427E-02
 STRESS PERIOD TIME 2.62829E+06  43805.      730.08      30.420     8.32854E-02
         TOTAL TIME 4.99375E+07 8.32291E+05  13872.      577.98      1.5824    
1
1
  FLUX ACROSS PARENT-CHILD INTERFACE AT TIME STEP  2 IN STRESS PERIOD   19
  ------------------------------------------------------------------------
 G-N FLUX        PARENT        CHILD         DIFFERENCE      % DIFFERENCE
  RATE IN:      1.4991E+03    1.4990E+03     1.4246E-01        0.0095
 RATE OUT:      1.6528E+03    1.6530E+03    -1.9214E-01       -0.0116
1
                            STRESS PERIOD NO.     20, LENGTH =   30.42000    
                            -----------------------------------------------

                              NUMBER OF TIME STEPS =     2

                               MULTIPLIER FOR DELT =     1.000

                            INITIAL TIME STEP SIZE =   15.21000    
 
 SOLVING FOR HEAD 
                                                   Max.-Head-Change                        Max.-Flux-Residual
  Residual-Control   Outer-Iter.   Inner-Iter.     Column Row Layer    Max.-Head-Change    Column Row Layer    Max.-Flux-Residual            L2-New               L2-Old           Solver-Max-Delh
          0                 1           6            11    3     4      -0.7567297194E-01       1    3    1      -0.5068150696E+02      0.1416313894E+03      0.8499176007E-01     -0.7567297194E-01
          0                 2           4            11    3     4       0.6533456505E-02       1    3    1       0.5042876228E+01      0.1416323186E+02      0.1416313894E+03      0.6533456505E-02
          0                 3           3            11    3     4       0.3281127260E-03       1    3    1       0.2593510867E+00      0.7066096314E+00      0.1416323186E+02      0.3281127260E-03
          0                 4           2             6    2     4       0.1685618274E-04       1    3    1       0.1551433548E-01      0.3451085410E-01      0.7066096314E+00      0.1685618274E-04

    ------------------------------------------------
       NWT REQUIRED            4 OUTER ITERATIONS 
       AND A TOTAL OF         15 INNER ITERATIONS.
    ------------------------------------------------
                                                   Max.-Head-Change                        Max.-Flux-Residual
  Residual-Control   Outer-Iter.   Inner-Iter.     Column Row Layer    Max.-Head-Change    Column Row Layer    Max.-Flux-Residual            L2-New               L2-Old           Solver-Max-Delh
          0                 1           5             7    1     2      -0.4790151820E-01       1    1    1      -0.3309623234E+02      0.1017658167E+03      0.3451085410E-01     -0.4790151820E-01
          0                 2           4             7    1     2       0.4135202357E-02       1    1    1       0.3292579208E+01      0.1017127534E+02      0.1017658167E+03      0.4135202357E-02
          0                 3           3             7    1     1       0.2101609679E-03       1    1    1       0.1696337680E+00      0.5140144346E+00      0.1017127534E+02      0.2101609679E-03
          0                 4           2             1    1     1       0.1072376281E-04       1    1    1       0.1062897849E-01      0.2930984843E-01      0.5140144346E+00      0.1072376281E-04

    ------------------------------------------------
       NWT REQUIRED            4 OUTER ITERATIONS 
       AND A TOTAL OF         14 INNER ITERATIONS.
    ------------------------------------------------
                                                   Max.-Head-Change                        Max.-Flux-Residual
  Residual-Control   Outer-Iter.   Inner-Iter.     Column Row Layer    Max.-Head-Change    Column Row Layer    Max.-Flux-Residual            L2-New               L2-Old           Solver-Max-Delh
          0                 1           5             7    1     2      -0.2327854074E-01       1    1    1      -0.1607533049E+02      0.4967184993E+02      0.2930984843E-01     -0.2327854074E-01
          0                 2           4             7    1     1       0.2012156643E-02      12    1    1       0.1616626999E+01      0.4968127108E+01      0.4967184993E+02      0.2012156643E-02
          0                 3           3             8    1     2       0.1006468208E-03      12    1    1       0.7980464021E-01      0.2448832679E+00      0.4968127108E+01      0.1006468208E-03
          0                 4           2             1    1     1       0.1055130889E-04       1    1    1       0.1332647994E-01      0.2323665194E-01      0.2448832679E+00      0.1055130889E-04

    ------------------------------------------------
       NWT REQUIRED            4 OUTER ITERATIONS 
       AND A TOTAL OF         14 INNER ITERATIONS.
    ------------------------------------------------
                                                   Max.-Head-Change                        Max.-Flux-Residual
  Residual-Control   Outer-Iter.   Inner-Iter.     Column Row Layer    Max.-Head-Change    Column Row Layer    Max.-Flux-Residual            L2-New               L2-Old           Solver-Max-Delh
          0                 1           5             8    1     2      -0.1024074646E-01      12    1    1      -0.7389751770E+01      0.2261602332E+02      0.2323665194E-01     -0.1024074646E-01
          0                 2           4             7    1     1       0.8844653631E-03      12    1    1       0.7429796880E+00      0.2264381036E+01      0.2261602332E+02      0.8844653631E-03
          0                 3           3             8    1     2       0.4413880925E-04      12    1    1       0.4302025965E-01      0.1144271551E+00      0.2264381036E+01      0.4413880925E-04

    ------------------------------------------------
       NWT REQUIRED            3 OUTER ITERATIONS 
       AND A TOTAL OF         12 INNER ITERATIONS.
    ------------------------------------------------
                                                   Max.-Head-Change                        Max.-Flux-Residual
  Residual-Control   Outer-Iter.   Inner-Iter.     Column Row Layer    Max.-Head-Change    Column Row Layer    Max.-Flux-Residual            L2-New               L2-Old           Solver-Max-Delh
          0                 1           4            12    3     2      -0.4377825781E-02       1    3    1      -0.3171009381E+01      0.9686680458E+01      0.1144271551E+00     -0.4377825781E-02
          0                 2           3            12    3     2       0.3773352114E-03      12    3    1       0.3171875186E+00      0.9669999395E+00      0.9686680458E+01      0.3773352114E-03
          0                 3           2            10    3     1       0.2250664260E-04       1    1    1       0.2254531137E-01      0.5989336899E-01      0.9669999395E+00      0.2250664260E-04

    ------------------------------------------------
       NWT REQUIRED            3 OUTER ITERATIONS 
       AND A TOTAL OF          9 INNER ITERATIONS.
    ------------------------------------------------
                                                   Max.-Head-Change                        Max.-Flux-Residual
  Residual-Control   Outer-Iter.   Inner-Iter.     Column Row Layer    Max.-Head-Change    Column Row Layer    Max.-Flux-Residual            L2-New               L2-Old           Solver-Max-Delh
          0                 1           4            12    3     2      -0.1946136397E-02       1    3    1      -0.1501939406E+01      0.3949081641E+01      0.5989336899E-01     -0.1946136397E-02
          0                 2           3            12    3     2       0.1680204786E-03       1    3    1       0.1463770447E+00      0.3940534332E+00      0.3949081641E+01      0.1680204786E-03
          0                 3           2             1    3     1       0.8525691753E-05      12    1    1       0.1260070398E-01      0.2976627109E-01      0.3940534332E+00      0.8525691753E-05

    ------------------------------------------------
       NWT REQUIRED            3 OUTER ITERATIONS 
       AND A TOTAL OF          9 INNER ITERATIONS.
    ------------------------------------------------
                                                   Max.-Head-Change                        Max.-Flux-Residual
  Residual-Control   Outer-Iter.   Inner-Iter.     Column Row Layer    Max.-Head-Change    Column Row Layer    Max.-Flux-Residual            L2-New               L2-Old           Solver-Max-Delh
          0                 1           4            12    3     2      -0.7839097638E-03       1    3    1      -0.6383057121E+00      0.1505387996E+01      0.2976627109E-01     -0.7839097638E-03
          0                 2           3            12    3     2       0.6762170438E-04      12    3    1       0.6047185409E-01      0.1451850783E+00      0.1505387996E+01      0.6762170438E-04

    ------------------------------------------------
       NWT REQUIRED            2 OUTER ITERATIONS 
       AND A TOTAL OF          7 INNER ITERATIONS.
    ------------------------------------------------
                                                   Max.-Head-Change                        Max.-Flux-Residual
  Residual-Control   Outer-Iter.   Inner-Iter.     Column Row Layer    Max.-Head-Change    Column Row Layer    Max.-Flux-Residual            L2-New               L2-Old           Solver-Max-Delh
          0                 1           3            12    3     2      -0.2596738250E-03       1    3    1      -0.2170140184E+00      0.4882063833E+00      0.1451850783E+00     -0.2596738250E-03
          0                 2           2            12    3     2       0.2215592036E-04       1    3    1       0.1961345074E-01      0.4875279972E-01      0.4882063833E+00      0.2215592036E-04

    ------------------------------------------------
       NWT REQUIRED            2 OUTER ITERATIONS 
       AND A TOTAL OF          5 INNER ITERATIONS.
    ------------------------------------------------
          0                 1           3             6    1     1       0.8083096164E-04       8    1    1       0.6417442823E-01      0.1584886489E+00      0.4875279972E-01      0.8083096164E-04

    ------------------------------------------------
       NWT REQUIRED            1 OUTER ITERATIONS 
       AND A TOTAL OF          3 INNER ITERATIONS.
    ------------------------------------------------
          0                 1           2             5    1     1       0.6063671056E-04       5    1    1       0.3802006459E-01      0.1061331803E+00      0.1584886489E+00      0.6063671056E-04

    ------------------------------------------------
       NWT REQUIRED            1 OUTER ITERATIONS 
       AND A TOTAL OF          2 INNER ITERATIONS.
    ------------------------------------------------
          0                 1           2             6    3     1       0.4763916140E-04       1    3    1       0.3492253541E-01      0.9634200645E-01      0.1061331803E+00      0.4763916140E-04

    ------------------------------------------------
       NWT REQUIRED            1 OUTER ITERATIONS 
       AND A TOTAL OF          2 INNER ITERATIONS.
    ------------------------------------------------

 OUTPUT CONTROL FOR STRESS PERIOD     20   TIME STEP     1
    SAVE BUDGET
 UBDSV1 SAVING "         STORAGE" ON UNIT7012 AT TIME STEP    1, STRESS PERIOD  20
 UBDSV2 SAVING "   CONSTANT HEAD" ON UNIT7012 AT TIME STEP    1, STRESS PERIOD  20
 UBDSV1 SAVING "FLOW RIGHT FACE " ON UNIT7012 AT TIME STEP    1, STRESS PERIOD  20
 UBDSV1 SAVING "FLOW FRONT FACE " ON UNIT7012 AT TIME STEP    1, STRESS PERIOD  20
 UBDSV1 SAVING "FLOW LOWER FACE " ON UNIT7012 AT TIME STEP    1, STRESS PERIOD  20
 UBDSV4 SAVING " GHOST-NODE HEAD" ON UNIT7012 AT TIME STEP    1, STRESS PERIOD  20
1
  FLUX ACROSS PARENT-CHILD INTERFACE AT TIME STEP  1 IN STRESS PERIOD   20
  ------------------------------------------------------------------------
 G-N FLUX        PARENT        CHILD         DIFFERENCE      % DIFFERENCE
  RATE IN:      1.4960E+03    1.4959E+03     1.7029E-01        0.0114
 RATE OUT:      1.6731E+03    1.6733E+03    -2.0715E-01       -0.0124
 
 SOLVING FOR HEAD 
                                                   Max.-Head-Change                        Max.-Flux-Residual
  Residual-Control   Outer-Iter.   Inner-Iter.     Column Row Layer    Max.-Head-Change    Column Row Layer    Max.-Flux-Residual            L2-New               L2-Old           Solver-Max-Delh
          0                 1           6            11    3     4      -0.7431543189E-01      12    3    1      -0.4508639216E+02      0.1254200513E+03      0.9634200645E-01     -0.7431543189E-01
          0                 2           4            11    3     4       0.6416444340E-02      12    3    1       0.4542452652E+01      0.1255475998E+02      0.1254200513E+03      0.6416444340E-02
          0                 3           3            11    3     4       0.3221107088E-03       1    3    1       0.2261901914E+00      0.6228550439E+00      0.1255475998E+02      0.3221107088E-03
          0                 4           2             6    2     4       0.1654303554E-04       1    1    1       0.1443369768E-01      0.3688919119E-01      0.6228550439E+00      0.1654303554E-04

    ------------------------------------------------
       NWT REQUIRED            4 OUTER ITERATIONS 
       AND A TOTAL OF         15 INNER ITERATIONS.
    ------------------------------------------------
                                                   Max.-Head-Change                        Max.-Flux-Residual
  Residual-Control   Outer-Iter.   Inner-Iter.     Column Row Layer    Max.-Head-Change    Column Row Layer    Max.-Flux-Residual            L2-New               L2-Old           Solver-Max-Delh
          0                 1           5             6    1     2      -0.4503077860E-01       1    1    1      -0.3105279483E+02      0.9341983217E+02      0.3688919119E-01     -0.4503077860E-01
          0                 2           4             6    1     2       0.3885882046E-02       1    1    1       0.3088378742E+01      0.9332520741E+01      0.9341983217E+02      0.3885882046E-02
          0                 3           3             6    1     2       0.1951245443E-03       1    1    1       0.1627943099E+00      0.4678755687E+00      0.9332520741E+01      0.1951245443E-03
          0                 4           2            11    1     1       0.1143648506E-04       1    3    1       0.1210596174E-01      0.2944161657E-01      0.4678755687E+00      0.1143648506E-04

    ------------------------------------------------
       NWT REQUIRED            4 OUTER ITERATIONS 
       AND A TOTAL OF         14 INNER ITERATIONS.
    ------------------------------------------------
                                                   Max.-Head-Change                        Max.-Flux-Residual
  Residual-Control   Outer-Iter.   Inner-Iter.     Column Row Layer    Max.-Head-Change    Column Row Layer    Max.-Flux-Residual            L2-New               L2-Old           Solver-Max-Delh
          0                 1           5             7    1     2      -0.2233637398E-01       1    1    1      -0.1531845002E+02      0.4664098066E+02      0.2944161657E-01     -0.2233637398E-01
          0                 2           4             7    1     2       0.1927869718E-02       1    1    1       0.1521117381E+01      0.4657018570E+01      0.4664098066E+02      0.1927869718E-02
          0                 3           3             7    1     2       0.9687166117E-04       1    1    1       0.7340464706E-01      0.2342449094E+00      0.4657018570E+01      0.9687166117E-04

    ------------------------------------------------
       NWT REQUIRED            3 OUTER ITERATIONS 
       AND A TOTAL OF         12 INNER ITERATIONS.
    ------------------------------------------------
                                                   Max.-Head-Change                        Max.-Flux-Residual
  Residual-Control   Outer-Iter.   Inner-Iter.     Column Row Layer    Max.-Head-Change    Column Row Layer    Max.-Flux-Residual            L2-New               L2-Old           Solver-Max-Delh
          0                 1           5             7    1     2      -0.9969745822E-02       1    1    1      -0.6933618434E+01      0.2172045240E+02      0.2342449094E+00     -0.9969745822E-02
          0                 2           4             7    1     2       0.8604723438E-03       1    1    1       0.6950091849E+00      0.2171202077E+01      0.2172045240E+02      0.8604723438E-03
          0                 3           3             7    1     1       0.4544704266E-04      12    1    1       0.3683431062E-01      0.1128540234E+00      0.2171202077E+01      0.4544704266E-04

    ------------------------------------------------
       NWT REQUIRED            3 OUTER ITERATIONS 
       AND A TOTAL OF         12 INNER ITERATIONS.
    ------------------------------------------------
                                                   Max.-Head-Change                        Max.-Flux-Residual
  Residual-Control   Outer-Iter.   Inner-Iter.     Column Row Layer    Max.-Head-Change    Column Row Layer    Max.-Flux-Residual            L2-New               L2-Old           Solver-Max-Delh
          0                 1           4            12    3     2      -0.4245997521E-02       1    3    1      -0.3084178569E+01      0.9563273465E+01      0.1128540234E+00     -0.4245997521E-02
          0                 2           3            12    3     2       0.3663212236E-03       1    3    1       0.3121279572E+00      0.9598051487E+00      0.9563273465E+01      0.3663212236E-03
          0                 3           2            11    1     1       0.1926445252E-04       1    3    1       0.1643725683E-01      0.4504192968E-01      0.9598051487E+00      0.1926445252E-04

    ------------------------------------------------
       NWT REQUIRED            3 OUTER ITERATIONS 
       AND A TOTAL OF          9 INNER ITERATIONS.
    ------------------------------------------------
                                                   Max.-Head-Change                        Max.-Flux-Residual
  Residual-Control   Outer-Iter.   Inner-Iter.     Column Row Layer    Max.-Head-Change    Column Row Layer    Max.-Flux-Residual            L2-New               L2-Old           Solver-Max-Delh
          0                 1           4            12    3     2      -0.1915091988E-02       1    3    1      -0.1508764433E+01      0.4042991461E+01      0.4504192968E-01     -0.1915091988E-02
          0                 2           3            12    3     2       0.1652002081E-03       1    3    1       0.1483894940E+00      0.4030435598E+00      0.4042991461E+01      0.1652002081E-03
          0                 3           2            12    1     1       0.9514387598E-05      12    1    1       0.1175231329E-01      0.2584956484E-01      0.4030435598E+00      0.9514387598E-05

    ------------------------------------------------
       NWT REQUIRED            3 OUTER ITERATIONS 
       AND A TOTAL OF          9 INNER ITERATIONS.
    ------------------------------------------------
                                                   Max.-Head-Change                        Max.-Flux-Residual
  Residual-Control   Outer-Iter.   Inner-Iter.     Column Row Layer    Max.-Head-Change    Column Row Layer    Max.-Flux-Residual            L2-New               L2-Old           Solver-Max-Delh
          0                 1           4            12    3     2      -0.7976384263E-03       1    3    1      -0.6603953730E+00      0.1607560374E+01      0.2584956484E-01     -0.7976384263E-03
          0                 2           3             1    3     2       0.6858774256E-04       1    3    1       0.6527289585E-01      0.1568379444E+00      0.1607560374E+01      0.6858774256E-04

    ------------------------------------------------
       NWT REQUIRED            2 OUTER ITERATIONS 
       AND A TOTAL OF          7 INNER ITERATIONS.
    ------------------------------------------------
                                                   Max.-Head-Change                        Max.-Flux-Residual
  Residual-Control   Outer-Iter.   Inner-Iter.     Column Row Layer    Max.-Head-Change    Column Row Layer    Max.-Flux-Residual            L2-New               L2-Old           Solver-Max-Delh
          0                 1           3             1    3     2      -0.2853260618E-03       1    3    1      -0.2432942570E+00      0.5313864938E+00      0.1568379444E+00     -0.2853260618E-03
          0                 2           2             1    3     2       0.2445362621E-04       1    3    1       0.2580093761E-01      0.5369934624E-01      0.5313864938E+00      0.2445362621E-04

    ------------------------------------------------
       NWT REQUIRED            2 OUTER ITERATIONS 
       AND A TOTAL OF          5 INNER ITERATIONS.
    ------------------------------------------------
          0                 1           2            12    3     2      -0.6985168504E-04       1    3    1      -0.7287167577E-01      0.1577485338E+00      0.5369934624E-01     -0.6985168504E-04

    ------------------------------------------------
       NWT REQUIRED            1 OUTER ITERATIONS 
       AND A TOTAL OF          2 INNER ITERATIONS.
    ------------------------------------------------
          0                 1           2             6    3     1       0.5268902411E-04       5    3    1       0.2723722544E-01      0.9136753503E-01      0.1577485338E+00      0.5268902411E-04

    ------------------------------------------------
       NWT REQUIRED            1 OUTER ITERATIONS 
       AND A TOTAL OF          2 INNER ITERATIONS.
    ------------------------------------------------
          0                 1           2             7    3     2       0.4275775805E-04       5    1    1       0.2698073199E-01      0.7823744452E-01      0.9136753503E-01      0.4275775805E-04

    ------------------------------------------------
       NWT REQUIRED            1 OUTER ITERATIONS 
       AND A TOTAL OF          2 INNER ITERATIONS.
    ------------------------------------------------

 OUTPUT CONTROL FOR STRESS PERIOD     20   TIME STEP     2
    SAVE BUDGET
 UBDSV1 SAVING "         STORAGE" ON UNIT7012 AT TIME STEP    2, STRESS PERIOD  20
 UBDSV2 SAVING "   CONSTANT HEAD" ON UNIT7012 AT TIME STEP    2, STRESS PERIOD  20
 UBDSV1 SAVING "FLOW RIGHT FACE " ON UNIT7012 AT TIME STEP    2, STRESS PERIOD  20
 UBDSV1 SAVING "FLOW FRONT FACE " ON UNIT7012 AT TIME STEP    2, STRESS PERIOD  20
 UBDSV1 SAVING "FLOW LOWER FACE " ON UNIT7012 AT TIME STEP    2, STRESS PERIOD  20
 UBDSV4 SAVING " GHOST-NODE HEAD" ON UNIT7012 AT TIME STEP    2, STRESS PERIOD  20
1
  VOLUMETRIC BUDGET FOR ENTIRE MODEL AT END OF TIME STEP    2 IN STRESS PERIOD     20
  ------------------------------------------------------------------------------

     CUMULATIVE VOLUMES      L**3       RATES FOR THIS TIME STEP      L**3/T
     ------------------                 ------------------------

           IN:                                      IN:
           ---                                      ---
             STORAGE =       47779.4766               STORAGE =         162.3674
       CONSTANT HEAD =           0.0000         CONSTANT HEAD =           0.0000
     GHOST-NODE HEAD =     2492927.7500       GHOST-NODE HEAD =        1513.7505

            TOTAL IN =     2540707.2500              TOTAL IN =        1676.1179

          OUT:                                     OUT:
          ----                                     ----
             STORAGE =     1629916.8750               STORAGE =           0.0000
       CONSTANT HEAD =           0.0000         CONSTANT HEAD =           0.0000
     GHOST-NODE HEAD =      910791.1875       GHOST-NODE HEAD =        1676.1616

           TOTAL OUT =     2540708.0000             TOTAL OUT =        1676.1616

            IN - OUT =          -0.7500              IN - OUT =      -4.3701E-02

 PERCENT DISCREPANCY =          -0.00     PERCENT DISCREPANCY =          -0.00






          TIME SUMMARY AT END OF TIME STEP     2 IN STRESS PERIOD     20
                    SECONDS     MINUTES      HOURS       DAYS        YEARS
                    -----------------------------------------------------------
   TIME STEP LENGTH 1.31414E+06  21902.      365.04      15.210     4.16427E-02
 STRESS PERIOD TIME 2.62829E+06  43805.      730.08      30.420     8.32854E-02
         TOTAL TIME 5.25658E+07 8.76096E+05  14602.      608.40      1.6657    
1
1
  FLUX ACROSS PARENT-CHILD INTERFACE AT TIME STEP  2 IN STRESS PERIOD   20
  ------------------------------------------------------------------------
 G-N FLUX        PARENT        CHILD         DIFFERENCE      % DIFFERENCE
  RATE IN:      1.5139E+03    1.5138E+03     1.9275E-01        0.0127
 RATE OUT:      1.6760E+03    1.6762E+03    -1.8457E-01       -0.0110
1
                            STRESS PERIOD NO.     21, LENGTH =   30.42000    
                            -----------------------------------------------

                              NUMBER OF TIME STEPS =     2

                               MULTIPLIER FOR DELT =     1.000

                            INITIAL TIME STEP SIZE =   15.21000    
 
 SOLVING FOR HEAD 
                                                   Max.-Head-Change                        Max.-Flux-Residual
  Residual-Control   Outer-Iter.   Inner-Iter.     Column Row Layer    Max.-Head-Change    Column Row Layer    Max.-Flux-Residual            L2-New               L2-Old           Solver-Max-Delh
          0                 1           5             8    3     4      -0.6546988288E-01       1    3    1      -0.4225930719E+02      0.9454638804E+02      0.7823744452E-01     -0.6546988288E-01
          0                 2           4             8    3     4       0.5648289058E-02       1    3    1       0.4209462254E+01      0.9432960794E+01      0.9454638804E+02      0.5648289058E-02
          0                 3           3             8    3     4       0.2841582712E-03       1    3    1       0.2137219814E+00      0.4732665343E+00      0.9432960794E+01      0.2841582712E-03
          0                 4           2             5    3     4       0.1464595277E-04      12    3    1       0.1286608199E-01      0.3266674198E-01      0.4732665343E+00      0.1464595277E-04

    ------------------------------------------------
       NWT REQUIRED            4 OUTER ITERATIONS 
       AND A TOTAL OF         14 INNER ITERATIONS.
    ------------------------------------------------
                                                   Max.-Head-Change                        Max.-Flux-Residual
  Residual-Control   Outer-Iter.   Inner-Iter.     Column Row Layer    Max.-Head-Change    Column Row Layer    Max.-Flux-Residual            L2-New               L2-Old           Solver-Max-Delh
          0                 1           5             5    1     1      -0.3977001771E-01       1    1    1      -0.2959447374E+02      0.7373082310E+02      0.3266674198E-01     -0.3977001771E-01
          0                 2           4             5    1     1       0.3422451890E-02       1    1    1       0.2939740591E+01      0.7342978920E+01      0.7373082310E+02      0.3422451890E-02
          0                 3           3             4    1     1       0.1728546819E-03       1    1    1       0.1479875308E+00      0.3697886932E+00      0.7342978920E+01      0.1728546819E-03
          0                 4           2             5    1     1       0.1085143881E-04       1    1    1       0.1055669005E-01      0.2624130414E-01      0.3697886932E+00      0.1085143881E-04

    ------------------------------------------------
       NWT REQUIRED            4 OUTER ITERATIONS 
       AND A TOTAL OF         14 INNER ITERATIONS.
    ------------------------------------------------
                                                   Max.-Head-Change                        Max.-Flux-Residual
  Residual-Control   Outer-Iter.   Inner-Iter.     Column Row Layer    Max.-Head-Change    Column Row Layer    Max.-Flux-Residual            L2-New               L2-Old           Solver-Max-Delh
          0                 1           5             5    1     1      -0.1985565297E-01       1    1    1      -0.1471963580E+02      0.3722935997E+02      0.2624130414E-01     -0.1985565297E-01
          0                 2           4             5    1     1       0.1708502916E-02       1    1    1       0.1464568386E+01      0.3712071897E+01      0.3722935997E+02      0.1708502916E-02
          0                 3           3             5    1     1       0.8642047456E-04       1    1    1       0.7545560726E-01      0.1881824659E+00      0.3712071897E+01      0.8642047456E-04

    ------------------------------------------------
       NWT REQUIRED            3 OUTER ITERATIONS 
       AND A TOTAL OF         12 INNER ITERATIONS.
    ------------------------------------------------
                                                   Max.-Head-Change                        Max.-Flux-Residual
  Residual-Control   Outer-Iter.   Inner-Iter.     Column Row Layer    Max.-Head-Change    Column Row Layer    Max.-Flux-Residual            L2-New               L2-Old           Solver-Max-Delh
          0                 1           5             5    1     1      -0.8726778874E-02       1    1    1      -0.6616606599E+01      0.1724272462E+02      0.1881824659E+00     -0.8726778874E-02
          0                 2           4             5    1     1       0.7544576448E-03       1    1    1       0.6537818257E+00      0.1724321009E+01      0.1724272462E+02      0.7544576448E-03
          0                 3           2             4    1     1       0.3872808281E-04       1    1    1       0.3350479179E-01      0.8690319771E-01      0.1724321009E+01      0.3872808281E-04

    ------------------------------------------------
       NWT REQUIRED            3 OUTER ITERATIONS 
       AND A TOTAL OF         11 INNER ITERATIONS.
    ------------------------------------------------
                                                   Max.-Head-Change                        Max.-Flux-Residual
  Residual-Control   Outer-Iter.   Inner-Iter.     Column Row Layer    Max.-Head-Change    Column Row Layer    Max.-Flux-Residual            L2-New               L2-Old           Solver-Max-Delh
          0                 1           4             1    3     2      -0.3579194308E-02       1    3    1      -0.2737685251E+01      0.7578193130E+01      0.8690319771E-01     -0.3579194308E-02
          0                 2           3             1    3     2       0.3082159168E-03       1    3    1       0.2677277692E+00      0.7562547595E+00      0.7578193130E+01      0.3082159168E-03
          0                 3           2             1    3     1       0.1904054300E-04       1    3    1       0.2297639288E-01      0.4472889987E-01      0.7562547595E+00      0.1904054300E-04

    ------------------------------------------------
       NWT REQUIRED            3 OUTER ITERATIONS 
       AND A TOTAL OF          9 INNER ITERATIONS.
    ------------------------------------------------
                                                   Max.-Head-Change                        Max.-Flux-Residual
  Residual-Control   Outer-Iter.   Inner-Iter.     Column Row Layer    Max.-Head-Change    Column Row Layer    Max.-Flux-Residual            L2-New               L2-Old           Solver-Max-Delh
          0                 1           4             1    3     2      -0.1621050389E-02       1    3    1      -0.1333158696E+01      0.3339685695E+01      0.4472889987E-01     -0.1621050389E-02
          0                 2           3             1    3     2       0.1397023786E-03       1    3    1       0.1377189264E+00      0.3357343980E+00      0.3339685695E+01      0.1397023786E-03
          0                 3           2             1    3     1       0.1167769259E-04       1    3    1       0.1351693762E-01      0.2880629721E-01      0.3357343980E+00      0.1167769259E-04

    ------------------------------------------------
       NWT REQUIRED            3 OUTER ITERATIONS 
       AND A TOTAL OF          9 INNER ITERATIONS.
    ------------------------------------------------
                                                   Max.-Head-Change                        Max.-Flux-Residual
  Residual-Control   Outer-Iter.   Inner-Iter.     Column Row Layer    Max.-Head-Change    Column Row Layer    Max.-Flux-Residual            L2-New               L2-Old           Solver-Max-Delh
          0                 1           4            12    3     1      -0.7510848682E-03      12    3    1      -0.6764974652E+00      0.1492505585E+01      0.2880629721E-01     -0.7510848682E-03
          0                 2           3            12    3     1       0.6611893801E-04      12    3    1       0.7132150998E-01      0.1517130814E+00      0.1492505585E+01      0.6611893801E-04

    ------------------------------------------------
       NWT REQUIRED            2 OUTER ITERATIONS 
       AND A TOTAL OF          7 INNER ITERATIONS.
    ------------------------------------------------
                                                   Max.-Head-Change                        Max.-Flux-Residual
  Residual-Control   Outer-Iter.   Inner-Iter.     Column Row Layer    Max.-Head-Change    Column Row Layer    Max.-Flux-Residual            L2-New               L2-Old           Solver-Max-Delh
          0                 1           3            12    3     1      -0.3462640188E-03      12    3    1      -0.3203138512E+00      0.6367929785E+00      0.1517130814E+00     -0.3462640188E-03
          0                 2           2            12    3     1       0.3431626039E-04      12    3    1       0.3824024546E-01      0.6958689945E-01      0.6367929785E+00      0.3431626039E-04

    ------------------------------------------------
       NWT REQUIRED            2 OUTER ITERATIONS 
       AND A TOTAL OF          5 INNER ITERATIONS.
    ------------------------------------------------
                                                   Max.-Head-Change                        Max.-Flux-Residual
  Residual-Control   Outer-Iter.   Inner-Iter.     Column Row Layer    Max.-Head-Change    Column Row Layer    Max.-Flux-Residual            L2-New               L2-Old           Solver-Max-Delh
          0                 1           3            12    3     1      -0.1394086828E-03      12    3    1      -0.1316931919E+00      0.2659012081E+00      0.6958689945E-01     -0.1394086828E-03
          0                 2           2            12    3     1       0.1214796375E-04      12    3    1       0.1511965302E-01      0.2782631300E-01      0.2659012081E+00      0.1214796375E-04

    ------------------------------------------------
       NWT REQUIRED            2 OUTER ITERATIONS 
       AND A TOTAL OF          5 INNER ITERATIONS.
    ------------------------------------------------
          0                 1           3             6    1     1       0.4963620404E-04      12    3    1      -0.5219879813E-01      0.1204176722E+00      0.2782631300E-01      0.4963620404E-04

    ------------------------------------------------
       NWT REQUIRED            1 OUTER ITERATIONS 
       AND A TOTAL OF          3 INNER ITERATIONS.
    ------------------------------------------------
          0                 1           2             5    3     1       0.3931564652E-04       5    3    1       0.2931097499E-01      0.6632146446E-01      0.1204176722E+00      0.3931564652E-04

    ------------------------------------------------
       NWT REQUIRED            1 OUTER ITERATIONS 
       AND A TOTAL OF          2 INNER ITERATIONS.
    ------------------------------------------------

 OUTPUT CONTROL FOR STRESS PERIOD     21   TIME STEP     1
    SAVE BUDGET
 UBDSV1 SAVING "         STORAGE" ON UNIT7012 AT TIME STEP    1, STRESS PERIOD  21
 UBDSV2 SAVING "   CONSTANT HEAD" ON UNIT7012 AT TIME STEP    1, STRESS PERIOD  21
 UBDSV1 SAVING "FLOW RIGHT FACE " ON UNIT7012 AT TIME STEP    1, STRESS PERIOD  21
 UBDSV1 SAVING "FLOW FRONT FACE " ON UNIT7012 AT TIME STEP    1, STRESS PERIOD  21
 UBDSV1 SAVING "FLOW LOWER FACE " ON UNIT7012 AT TIME STEP    1, STRESS PERIOD  21
 UBDSV4 SAVING " GHOST-NODE HEAD" ON UNIT7012 AT TIME STEP    1, STRESS PERIOD  21
1
  FLUX ACROSS PARENT-CHILD INTERFACE AT TIME STEP  1 IN STRESS PERIOD   21
  ------------------------------------------------------------------------
 G-N FLUX        PARENT        CHILD         DIFFERENCE      % DIFFERENCE
  RATE IN:      1.5032E+03    1.5031E+03     9.1309E-02        0.0061
 RATE OUT:      1.6205E+03    1.6206E+03    -1.5894E-01       -0.0098
 
 SOLVING FOR HEAD 
                                                   Max.-Head-Change                        Max.-Flux-Residual
  Residual-Control   Outer-Iter.   Inner-Iter.     Column Row Layer    Max.-Head-Change    Column Row Layer    Max.-Flux-Residual            L2-New               L2-Old           Solver-Max-Delh
          0                 1           5             3    3     4      -0.5985645877E-01       1    3    1      -0.4020629445E+02      0.8875806828E+02      0.6632146446E-01     -0.5985645877E-01
          0                 2           4             3    3     4       0.5164553309E-02       1    3    1       0.4014732316E+01      0.8862026042E+01      0.8875806828E+02      0.5164553309E-02
          0                 3           3             3    3     4       0.2597344312E-03       1    3    1       0.1945656316E+00      0.4368137058E+00      0.8862026042E+01      0.2597344312E-03
          0                 4           2             4    3     4       0.1342600473E-04       1    1    1       0.1346605842E-01      0.3130454824E-01      0.4368137058E+00      0.1342600473E-04

    ------------------------------------------------
       NWT REQUIRED            4 OUTER ITERATIONS 
       AND A TOTAL OF         14 INNER ITERATIONS.
    ------------------------------------------------
                                                   Max.-Head-Change                        Max.-Flux-Residual
  Residual-Control   Outer-Iter.   Inner-Iter.     Column Row Layer    Max.-Head-Change    Column Row Layer    Max.-Flux-Residual            L2-New               L2-Old           Solver-Max-Delh
          0                 1           5             5    1     1      -0.3836150837E-01       1    1    1      -0.2859490192E+02      0.7137651692E+02      0.3130454824E-01     -0.3836150837E-01
          0                 2           4             5    1     1       0.3305278716E-02       1    1    1       0.2848422733E+01      0.7119860766E+01      0.7137651692E+02      0.3305278716E-02
          0                 3           3             5    1     1       0.1659302942E-03       1    1    1       0.1425817935E+00      0.3566137044E+00      0.7119860766E+01      0.1659302942E-03
          0                 4           2             1    1     1       0.1007660323E-04       1    1    1       0.1299962180E-01      0.2994734862E-01      0.3566137044E+00      0.1007660323E-04

    ------------------------------------------------
       NWT REQUIRED            4 OUTER ITERATIONS 
       AND A TOTAL OF         14 INNER ITERATIONS.
    ------------------------------------------------
                                                   Max.-Head-Change                        Max.-Flux-Residual
  Residual-Control   Outer-Iter.   Inner-Iter.     Column Row Layer    Max.-Head-Change    Column Row Layer    Max.-Flux-Residual            L2-New               L2-Old           Solver-Max-Delh
          0                 1           5             5    1     1      -0.1923227513E-01       1    1    1      -0.1421964424E+02      0.3594155167E+02      0.2994734862E-01     -0.1923227513E-01
          0                 2           4             5    1     1       0.1658624793E-02       1    1    1       0.1408778063E+01      0.3587086058E+01      0.3594155167E+02      0.1658624793E-02
          0                 3           3             6    1     1       0.8157236232E-04       1    1    1       0.7237187400E-01      0.1789490236E+00      0.3587086058E+01      0.8157236232E-04

    ------------------------------------------------
       NWT REQUIRED            3 OUTER ITERATIONS 
       AND A TOTAL OF         12 INNER ITERATIONS.
    ------------------------------------------------
                                                   Max.-Head-Change                        Max.-Flux-Residual
  Residual-Control   Outer-Iter.   Inner-Iter.     Column Row Layer    Max.-Head-Change    Column Row Layer    Max.-Flux-Residual            L2-New               L2-Old           Solver-Max-Delh
          0                 1           5             5    1     1      -0.8460084258E-02       1    1    1      -0.6312202860E+01      0.1640983876E+02      0.1789490236E+00     -0.8460084258E-02
          0                 2           4             5    1     1       0.7286576807E-03       1    1    1       0.6301248862E+00      0.1637389983E+01      0.1640983876E+02      0.7286576807E-03
          0                 3           2             4    1     1       0.3749562794E-04       1    1    1       0.3004557022E-01      0.8403253067E-01      0.1637389983E+01      0.3749562794E-04

    ------------------------------------------------
       NWT REQUIRED            3 OUTER ITERATIONS 
       AND A TOTAL OF         11 INNER ITERATIONS.
    ------------------------------------------------
                                                   Max.-Head-Change                        Max.-Flux-Residual
  Residual-Control   Outer-Iter.   Inner-Iter.     Column Row Layer    Max.-Head-Change    Column Row Layer    Max.-Flux-Residual            L2-New               L2-Old           Solver-Max-Delh
          0                 1           4             1    3     2      -0.3346288322E-02       1    3    1      -0.2512308084E+01      0.6955860906E+01      0.8403253067E-01     -0.3346288322E-02
          0                 2           3             1    3     2       0.2885953266E-03       1    3    1       0.2568861434E+00      0.6986806719E+00      0.6955860906E+01      0.2885953266E-03
          0                 3           2             3    1     1       0.1539432601E-04       1    1    1       0.1467696717E-01      0.3653145007E-01      0.6986806719E+00      0.1539432601E-04

    ------------------------------------------------
       NWT REQUIRED            3 OUTER ITERATIONS 
       AND A TOTAL OF          9 INNER ITERATIONS.
    ------------------------------------------------
                                                   Max.-Head-Change                        Max.-Flux-Residual
  Residual-Control   Outer-Iter.   Inner-Iter.     Column Row Layer    Max.-Head-Change    Column Row Layer    Max.-Flux-Residual            L2-New               L2-Old           Solver-Max-Delh
          0                 1           4             1    3     2      -0.1512116366E-02       1    3    1      -0.1214539806E+01      0.2882105780E+01      0.3653145007E-01     -0.1512116366E-02
          0                 2           3             1    3     2       0.1308117549E-03       1    3    1       0.1295173226E+00      0.2930041701E+00      0.2882105780E+01      0.1308117549E-03
          0                 3           2             6    1     1       0.6813739950E-05       4    1    1       0.7946897764E-02      0.2092205136E-01      0.2930041701E+00      0.6813739950E-05

    ------------------------------------------------
       NWT REQUIRED            3 OUTER ITERATIONS 
       AND A TOTAL OF          9 INNER ITERATIONS.
    ------------------------------------------------
                                                   Max.-Head-Change                        Max.-Flux-Residual
  Residual-Control   Outer-Iter.   Inner-Iter.     Column Row Layer    Max.-Head-Change    Column Row Layer    Max.-Flux-Residual            L2-New               L2-Old           Solver-Max-Delh
          0                 1           4             1    3     2      -0.6158775215E-03       1    3    1      -0.5189347937E+00      0.1229754880E+01      0.2092205136E-01     -0.6158775215E-03
          0                 2           3             1    3     2       0.5279121161E-04       1    3    1       0.4608827661E-01      0.1191814017E+00      0.1229754880E+01      0.5279121161E-04

    ------------------------------------------------
       NWT REQUIRED            2 OUTER ITERATIONS 
       AND A TOTAL OF          7 INNER ITERATIONS.
    ------------------------------------------------
                                                   Max.-Head-Change                        Max.-Flux-Residual
  Residual-Control   Outer-Iter.   Inner-Iter.     Column Row Layer    Max.-Head-Change    Column Row Layer    Max.-Flux-Residual            L2-New               L2-Old           Solver-Max-Delh
          0                 1           3            12    3     2      -0.2231099558E-03      12    3    1      -0.1947439425E+00      0.4970132263E+00      0.1191814017E+00     -0.2231099558E-03
          0                 2           2            12    3     2       0.1897321978E-04      12    3    1       0.1761299404E-01      0.5171587094E-01      0.4970132263E+00      0.1897321978E-04

    ------------------------------------------------
       NWT REQUIRED            2 OUTER ITERATIONS 
       AND A TOTAL OF          5 INNER ITERATIONS.
    ------------------------------------------------
          0                 1           3             5    1     1       0.9253074381E-04      12    3    1      -0.8413089660E-01      0.2083434696E+00      0.5171587094E-01      0.9253074381E-04

    ------------------------------------------------
       NWT REQUIRED            1 OUTER ITERATIONS 
       AND A TOTAL OF          3 INNER ITERATIONS.
    ------------------------------------------------
          0                 1           3             6    1     1       0.5386670684E-04       6    1    1       0.3758845094E-01      0.9966630691E-01      0.2083434696E+00      0.5386670684E-04

    ------------------------------------------------
       NWT REQUIRED            1 OUTER ITERATIONS 
       AND A TOTAL OF          3 INNER ITERATIONS.
    ------------------------------------------------
          0                 1           2             6    3     1       0.4143761043E-04       1    1    1       0.3132545063E-01      0.8102145718E-01      0.9966630691E-01      0.4143761043E-04

    ------------------------------------------------
       NWT REQUIRED            1 OUTER ITERATIONS 
       AND A TOTAL OF          2 INNER ITERATIONS.
    ------------------------------------------------

 OUTPUT CONTROL FOR STRESS PERIOD     21   TIME STEP     2
    PRINT BUDGET
    SAVE HEAD FOR ALL LAYERS
    SAVE BUDGET
 UBDSV1 SAVING "         STORAGE" ON UNIT7012 AT TIME STEP    2, STRESS PERIOD  21
 UBDSV2 SAVING "   CONSTANT HEAD" ON UNIT7012 AT TIME STEP    2, STRESS PERIOD  21
 UBDSV1 SAVING "FLOW RIGHT FACE " ON UNIT7012 AT TIME STEP    2, STRESS PERIOD  21
 UBDSV1 SAVING "FLOW FRONT FACE " ON UNIT7012 AT TIME STEP    2, STRESS PERIOD  21
 UBDSV1 SAVING "FLOW LOWER FACE " ON UNIT7012 AT TIME STEP    2, STRESS PERIOD  21
 UBDSV4 SAVING " GHOST-NODE HEAD" ON UNIT7012 AT TIME STEP    2, STRESS PERIOD  21

 HEAD WILL BE SAVED ON UNIT 2212 AT END OF TIME STEP     2, STRESS PERIOD     21
1
  VOLUMETRIC BUDGET FOR ENTIRE MODEL AT END OF TIME STEP    2 IN STRESS PERIOD     21
  ------------------------------------------------------------------------------

     CUMULATIVE VOLUMES      L**3       RATES FOR THIS TIME STEP      L**3/T
     ------------------                 ------------------------

           IN:                                      IN:
           ---                                      ---
             STORAGE =       51203.0273               STORAGE =         107.5318
       CONSTANT HEAD =           0.0000         CONSTANT HEAD =           0.0000
     GHOST-NODE HEAD =     2538609.7500       GHOST-NODE HEAD =        1500.3623

            TOTAL IN =     2589812.7500              TOTAL IN =        1607.8942

          OUT:                                     OUT:
          ----                                     ----
             STORAGE =     1629916.8750               STORAGE =           0.0000
       CONSTANT HEAD =           0.0000         CONSTANT HEAD =           0.0000
     GHOST-NODE HEAD =      959897.8750       GHOST-NODE HEAD =        1607.9410

           TOTAL OUT =     2589814.7500             TOTAL OUT =        1607.9410

            IN - OUT =          -2.0000              IN - OUT =      -4.6875E-02

 PERCENT DISCREPANCY =          -0.00     PERCENT DISCREPANCY =          -0.00






          TIME SUMMARY AT END OF TIME STEP     2 IN STRESS PERIOD     21
                    SECONDS     MINUTES      HOURS       DAYS        YEARS
                    -----------------------------------------------------------
   TIME STEP LENGTH 1.31414E+06  21902.      365.04      15.210     4.16427E-02
 STRESS PERIOD TIME 2.62829E+06  43805.      730.08      30.420     8.32854E-02
         TOTAL TIME 5.51941E+07 9.19901E+05  15332.      638.82      1.7490    
1
1
  FLUX ACROSS PARENT-CHILD INTERFACE AT TIME STEP  2 IN STRESS PERIOD   21
  ------------------------------------------------------------------------
 G-N FLUX        PARENT        CHILD         DIFFERENCE      % DIFFERENCE
  RATE IN:      1.5005E+03    1.5004E+03     9.0210E-02        0.0060
 RATE OUT:      1.6078E+03    1.6079E+03    -1.5771E-01       -0.0098
1
                            STRESS PERIOD NO.     22, LENGTH =   30.42000    
                            -----------------------------------------------

                              NUMBER OF TIME STEPS =     2

                               MULTIPLIER FOR DELT =     1.000

                            INITIAL TIME STEP SIZE =   15.21000    
 
 SOLVING FOR HEAD 
                                                   Max.-Head-Change                        Max.-Flux-Residual
  Residual-Control   Outer-Iter.   Inner-Iter.     Column Row Layer    Max.-Head-Change    Column Row Layer    Max.-Flux-Residual            L2-New               L2-Old           Solver-Max-Delh
          0                 1           5             3    3     4      -0.5690850273E-01       1    3    1      -0.4105701023E+02      0.1068772960E+03      0.8102145718E-01     -0.5690850273E-01
          0                 2           4             3    3     4       0.4908983998E-02       1    3    1       0.4099153968E+01      0.1067768846E+02      0.1068772960E+03      0.4908983998E-02
          0                 3           3             3    3     4       0.2471505016E-03       1    3    1       0.1931351767E+00      0.5267621730E+00      0.1067768846E+02      0.2471505016E-03
          0                 4           2             1    3     1       0.1817909248E-04       1    3    1       0.2297422802E-01      0.3534872489E-01      0.5267621730E+00      0.1817909248E-04

    ------------------------------------------------
       NWT REQUIRED            4 OUTER ITERATIONS 
       AND A TOTAL OF         14 INNER ITERATIONS.
    ------------------------------------------------
                                                   Max.-Head-Change                        Max.-Flux-Residual
  Residual-Control   Outer-Iter.   Inner-Iter.     Column Row Layer    Max.-Head-Change    Column Row Layer    Max.-Flux-Residual            L2-New               L2-Old           Solver-Max-Delh
          0                 1           5             5    1     1      -0.3898677911E-01       1    1    1      -0.2567765515E+02      0.7076556678E+02      0.3534872489E-01     -0.3898677911E-01
          0                 2           4             5    1     1       0.3357990715E-02       1    1    1       0.2549100664E+01      0.7052070387E+01      0.7076556678E+02      0.3357990715E-02
          0                 3           3             5    1     1       0.1673775289E-03       1    1    1       0.1242766411E+00      0.3550945940E+00      0.7052070387E+01      0.1673775289E-03
          0                 4           2             1    1     1       0.9976031293E-05       1    1    1       0.1121951453E-01      0.2387945875E-01      0.3550945940E+00      0.9976031293E-05

    ------------------------------------------------
       NWT REQUIRED            4 OUTER ITERATIONS 
       AND A TOTAL OF         14 INNER ITERATIONS.
    ------------------------------------------------
                                                   Max.-Head-Change                        Max.-Flux-Residual
  Residual-Control   Outer-Iter.   Inner-Iter.     Column Row Layer    Max.-Head-Change    Column Row Layer    Max.-Flux-Residual            L2-New               L2-Old           Solver-Max-Delh
          0                 1           5             5    1     1      -0.1882312525E-01       1    1    1      -0.1328849270E+02      0.3429259559E+02      0.2387945875E-01     -0.1882312525E-01
          0                 2           4             5    1     1       0.1627408893E-02       1    1    1       0.1325971585E+01      0.3430598392E+01      0.3429259559E+02      0.1627408893E-02
          0                 3           3             5    1     1       0.7804327598E-04       1    1    1       0.5650356971E-01      0.1639779685E+00      0.3430598392E+01      0.7804327598E-04

    ------------------------------------------------
       NWT REQUIRED            3 OUTER ITERATIONS 
       AND A TOTAL OF         12 INNER ITERATIONS.
    ------------------------------------------------
                                                   Max.-Head-Change                        Max.-Flux-Residual
  Residual-Control   Outer-Iter.   Inner-Iter.     Column Row Layer    Max.-Head-Change    Column Row Layer    Max.-Flux-Residual            L2-New               L2-Old           Solver-Max-Delh
          0                 1           5             4    1     1      -0.7974608700E-02       1    1    1      -0.6282320618E+01      0.1532982121E+02      0.1639779685E+00     -0.7974608700E-02
          0                 2           4             4    1     1       0.6913706440E-03       1    1    1       0.6267286718E+00      0.1534431378E+01      0.1532982121E+02      0.6913706440E-03
          0                 3           2             4    1     1       0.3203355079E-04       1    1    1       0.3180674987E-01      0.7280353921E-01      0.1534431378E+01      0.3203355079E-04

    ------------------------------------------------
       NWT REQUIRED            3 OUTER ITERATIONS 
       AND A TOTAL OF         11 INNER ITERATIONS.
    ------------------------------------------------
                                                   Max.-Head-Change                        Max.-Flux-Residual
  Residual-Control   Outer-Iter.   Inner-Iter.     Column Row Layer    Max.-Head-Change    Column Row Layer    Max.-Flux-Residual            L2-New               L2-Old           Solver-Max-Delh
          0                 1           4             1    1     1      -0.3152702183E-02       1    1    1      -0.2647309776E+01      0.6308323514E+01      0.7280353921E-01     -0.3152702183E-02
          0                 2           3             1    1     2       0.2705609654E-03       1    1    1       0.2614460342E+00      0.6327987763E+00      0.6308323514E+01      0.2705609654E-03
          0                 3           2             4    1     1       0.1714450559E-04       1    1    1       0.1707251626E-01      0.3841432287E-01      0.6327987763E+00      0.1714450559E-04

    ------------------------------------------------
       NWT REQUIRED            3 OUTER ITERATIONS 
       AND A TOTAL OF          9 INNER ITERATIONS.
    ------------------------------------------------
                                                   Max.-Head-Change                        Max.-Flux-Residual
  Residual-Control   Outer-Iter.   Inner-Iter.     Column Row Layer    Max.-Head-Change    Column Row Layer    Max.-Flux-Residual            L2-New               L2-Old           Solver-Max-Delh
          0                 1           4             1    3     2      -0.1322879422E-02       1    3    1      -0.1118206592E+01      0.2529862347E+01      0.3841432287E-01     -0.1322879422E-02
          0                 2           3             1    3     2       0.1137671522E-03       1    3    1       0.1106626085E+00      0.2481341638E+00      0.2529862347E+01      0.1137671522E-03
          0                 3           2            12    2     1       0.6645780364E-05      12    2    1       0.8377826074E-02      0.2230063599E-01      0.2481341638E+00      0.6645780364E-05

    ------------------------------------------------
       NWT REQUIRED            3 OUTER ITERATIONS 
       AND A TOTAL OF          9 INNER ITERATIONS.
    ------------------------------------------------
                                                   Max.-Head-Change                        Max.-Flux-Residual
  Residual-Control   Outer-Iter.   Inner-Iter.     Column Row Layer    Max.-Head-Change    Column Row Layer    Max.-Flux-Residual            L2-New               L2-Old           Solver-Max-Delh
          0                 1           4            12    2     1      -0.5588802665E-03       1    3    1      -0.4897220519E+00      0.1122060826E+01      0.2230063599E-01     -0.5588802665E-03
          0                 2           3            12    2     1       0.4885552533E-04      12    3    1       0.5611332119E-01      0.1174133551E+00      0.1122060826E+01      0.4885552533E-04

    ------------------------------------------------
       NWT REQUIRED            2 OUTER ITERATIONS 
       AND A TOTAL OF          7 INNER ITERATIONS.
    ------------------------------------------------
                                                   Max.-Head-Change                        Max.-Flux-Residual
  Residual-Control   Outer-Iter.   Inner-Iter.     Column Row Layer    Max.-Head-Change    Column Row Layer    Max.-Flux-Residual            L2-New               L2-Old           Solver-Max-Delh
          0                 1           3            12    3     2      -0.2409794161E-03      12    3    1      -0.2248559350E+00      0.5324532512E+00      0.1174133551E+00     -0.2409794161E-03
          0                 2           2            12    3     2       0.2044847845E-04       1    3    1       0.2779982251E-01      0.5596603973E-01      0.5324532512E+00      0.2044847845E-04

    ------------------------------------------------
       NWT REQUIRED            2 OUTER ITERATIONS 
       AND A TOTAL OF          5 INNER ITERATIONS.
    ------------------------------------------------
                                                   Max.-Head-Change                        Max.-Flux-Residual
  Residual-Control   Outer-Iter.   Inner-Iter.     Column Row Layer    Max.-Head-Change    Column Row Layer    Max.-Flux-Residual            L2-New               L2-Old           Solver-Max-Delh
          0                 1           3             5    1     1       0.1202048728E-03       4    1    1       0.9907368652E-01      0.2513575280E+00      0.5596603973E-01      0.1202048728E-03
          0                 2           2             5    1     1      -0.1220355685E-04       4    1    1      -0.1516566332E-01      0.3519786986E-01      0.2513575280E+00     -0.1220355685E-04

    ------------------------------------------------
       NWT REQUIRED            2 OUTER ITERATIONS 
       AND A TOTAL OF          5 INNER ITERATIONS.
    ------------------------------------------------
          0                 1           3             5    1     1       0.8281719604E-04       5    1    1       0.5487453041E-01      0.1347640249E+00      0.3519786986E-01      0.8281719604E-04

    ------------------------------------------------
       NWT REQUIRED            1 OUTER ITERATIONS 
       AND A TOTAL OF          3 INNER ITERATIONS.
    ------------------------------------------------
          0                 1           2             1    2     1       0.3817538646E-04       1    3    1       0.2706885850E-01      0.7356773346E-01      0.1347640249E+00      0.3817538646E-04

    ------------------------------------------------
       NWT REQUIRED            1 OUTER ITERATIONS 
       AND A TOTAL OF          2 INNER ITERATIONS.
    ------------------------------------------------

 OUTPUT CONTROL FOR STRESS PERIOD     22   TIME STEP     1
    SAVE BUDGET
 UBDSV1 SAVING "         STORAGE" ON UNIT7012 AT TIME STEP    1, STRESS PERIOD  22
 UBDSV2 SAVING "   CONSTANT HEAD" ON UNIT7012 AT TIME STEP    1, STRESS PERIOD  22
 UBDSV1 SAVING "FLOW RIGHT FACE " ON UNIT7012 AT TIME STEP    1, STRESS PERIOD  22
 UBDSV1 SAVING "FLOW FRONT FACE " ON UNIT7012 AT TIME STEP    1, STRESS PERIOD  22
 UBDSV1 SAVING "FLOW LOWER FACE " ON UNIT7012 AT TIME STEP    1, STRESS PERIOD  22
 UBDSV4 SAVING " GHOST-NODE HEAD" ON UNIT7012 AT TIME STEP    1, STRESS PERIOD  22
1
  FLUX ACROSS PARENT-CHILD INTERFACE AT TIME STEP  1 IN STRESS PERIOD   22
  ------------------------------------------------------------------------
 G-N FLUX        PARENT        CHILD         DIFFERENCE      % DIFFERENCE
  RATE IN:      1.4841E+03    1.4841E+03     3.3081E-02        0.0022
 RATE OUT:      1.6026E+03    1.6028E+03    -1.5369E-01       -0.0096
 
 SOLVING FOR HEAD 
                                                   Max.-Head-Change                        Max.-Flux-Residual
  Residual-Control   Outer-Iter.   Inner-Iter.     Column Row Layer    Max.-Head-Change    Column Row Layer    Max.-Flux-Residual            L2-New               L2-Old           Solver-Max-Delh
          0                 1           5             3    3     4      -0.5127078411E-01       1    3    1      -0.3467656394E+02      0.8468030628E+02      0.7356773346E-01     -0.5127078411E-01
          0                 2           4             3    3     4       0.4423214534E-02       1    3    1       0.3456896876E+01      0.8460736518E+01      0.8468030628E+02      0.4423214534E-02
          0                 3           3             3    3     4       0.2227709100E-03       1    3    1       0.1797551807E+00      0.4239118612E+00      0.8460736518E+01      0.2227709100E-03
          0                 4           2             4    3     4       0.1151839274E-04      12    3    1       0.1271406890E-01      0.2832303278E-01      0.4239118612E+00      0.1151839274E-04

    ------------------------------------------------
       NWT REQUIRED            4 OUTER ITERATIONS 
       AND A TOTAL OF         14 INNER ITERATIONS.
    ------------------------------------------------
                                                   Max.-Head-Change                        Max.-Flux-Residual
  Residual-Control   Outer-Iter.   Inner-Iter.     Column Row Layer    Max.-Head-Change    Column Row Layer    Max.-Flux-Residual            L2-New               L2-Old           Solver-Max-Delh
          0                 1           5             5    1     1      -0.3309834443E-01       1    1    1      -0.2327005059E+02      0.6093714012E+02      0.2832303278E-01     -0.3309834443E-01
          0                 2           4             5    1     1       0.2848210200E-02       1    1    1       0.2309459818E+01      0.6072690518E+01      0.6093714012E+02      0.2848210200E-02
          0                 3           3             5    1     1       0.1426556115E-03       1    1    1       0.1152364034E+00      0.3045994544E+00      0.6072690518E+01      0.1426556115E-03
          0                 4           2             3    1     1       0.8562580666E-05       5    1    1       0.7833326468E-02      0.2234832216E-01      0.3045994544E+00      0.8562580666E-05

    ------------------------------------------------
       NWT REQUIRED            4 OUTER ITERATIONS 
       AND A TOTAL OF         14 INNER ITERATIONS.
    ------------------------------------------------
                                                   Max.-Head-Change                        Max.-Flux-Residual
  Residual-Control   Outer-Iter.   Inner-Iter.     Column Row Layer    Max.-Head-Change    Column Row Layer    Max.-Flux-Residual            L2-New               L2-Old           Solver-Max-Delh
          0                 1           5             5    1     1      -0.1700773528E-01       1    1    1      -0.1210743974E+02      0.3134252918E+02      0.2234832216E-01     -0.1700773528E-01
          0                 2           4             5    1     1       0.1466768401E-02       1    1    1       0.1206210751E+01      0.3129962034E+01      0.3134252918E+02      0.1466768401E-02
          0                 3           3             4    1     1       0.7693049157E-04       1    1    1       0.5969205406E-01      0.1615799617E+00      0.3129962034E+01      0.7693049157E-04

    ------------------------------------------------
       NWT REQUIRED            3 OUTER ITERATIONS 
       AND A TOTAL OF         12 INNER ITERATIONS.
    ------------------------------------------------
                                                   Max.-Head-Change                        Max.-Flux-Residual
  Residual-Control   Outer-Iter.   Inner-Iter.     Column Row Layer    Max.-Head-Change    Column Row Layer    Max.-Flux-Residual            L2-New               L2-Old           Solver-Max-Delh
          0                 1           5             5    1     1      -0.7676010168E-02       1    1    1      -0.5704183081E+01      0.1469983024E+02      0.1615799617E+00     -0.7676010168E-02
          0                 2           4             4    1     1       0.6601845158E-03       1    1    1       0.5656212539E+00      0.1468601097E+01      0.1469983024E+02      0.6601845158E-03
          0                 3           2             4    1     1       0.3340423449E-04       1    3    1       0.2371111541E-01      0.7310899625E-01      0.1468601097E+01      0.3340423449E-04

    ------------------------------------------------
       NWT REQUIRED            3 OUTER ITERATIONS 
       AND A TOTAL OF         11 INNER ITERATIONS.
    ------------------------------------------------
                                                   Max.-Head-Change                        Max.-Flux-Residual
  Residual-Control   Outer-Iter.   Inner-Iter.     Column Row Layer    Max.-Head-Change    Column Row Layer    Max.-Flux-Residual            L2-New               L2-Old           Solver-Max-Delh
          0                 1           4             1    1     2      -0.3020892492E-02       1    1    1      -0.2406943707E+01      0.6326796553E+01      0.7310899625E-01     -0.3020892492E-02
          0                 2           3             4    1     1       0.2614678631E-03       1    1    1       0.2408641106E+00      0.6306823908E+00      0.6326796553E+01      0.2614678631E-03
          0                 3           2             1    1     2       0.1276397911E-04      12    3    1       0.8684310829E-02      0.2875950532E-01      0.6306823908E+00      0.1276397911E-04

    ------------------------------------------------
       NWT REQUIRED            3 OUTER ITERATIONS 
       AND A TOTAL OF          9 INNER ITERATIONS.
    ------------------------------------------------
                                                   Max.-Head-Change                        Max.-Flux-Residual
  Residual-Control   Outer-Iter.   Inner-Iter.     Column Row Layer    Max.-Head-Change    Column Row Layer    Max.-Flux-Residual            L2-New               L2-Old           Solver-Max-Delh
          0                 1           4             1    3     2      -0.1339282120E-02       1    3    1      -0.1056075203E+01      0.2584411171E+01      0.2875950532E-01     -0.1339282120E-02
          0                 2           3             1    3     2       0.1154939155E-03       1    3    1       0.1111146599E+00      0.2600521519E+00      0.2584411171E+01      0.1154939155E-03
          0                 3           2             1    1     1       0.9897973472E-05       1    1    1       0.1433265500E-01      0.2319831750E-01      0.2600521519E+00      0.9897973472E-05

    ------------------------------------------------
       NWT REQUIRED            3 OUTER ITERATIONS 
       AND A TOTAL OF          9 INNER ITERATIONS.
    ------------------------------------------------
                                                   Max.-Head-Change                        Max.-Flux-Residual
  Residual-Control   Outer-Iter.   Inner-Iter.     Column Row Layer    Max.-Head-Change    Column Row Layer    Max.-Flux-Residual            L2-New               L2-Old           Solver-Max-Delh
          0                 1           4             1    3     2      -0.5746658258E-03       1    3    1      -0.4884472039E+00      0.1075795581E+01      0.2319831750E-01     -0.5746658258E-03
          0                 2           3             1    3     2       0.4886927346E-04      12    3    1       0.4135413535E-01      0.1057052402E+00      0.1075795581E+01      0.4886927346E-04

    ------------------------------------------------
       NWT REQUIRED            2 OUTER ITERATIONS 
       AND A TOTAL OF          7 INNER ITERATIONS.
    ------------------------------------------------
                                                   Max.-Head-Change                        Max.-Flux-Residual
  Residual-Control   Outer-Iter.   Inner-Iter.     Column Row Layer    Max.-Head-Change    Column Row Layer    Max.-Flux-Residual            L2-New               L2-Old           Solver-Max-Delh
          0                 1           3             1    3     2      -0.2193080256E-03       1    3    1      -0.1862011022E+00      0.4577259843E+00      0.1057052402E+00     -0.2193080256E-03
          0                 2           2             1    3     2       0.1878919827E-04      12    3    1       0.2010700075E-01      0.4842264041E-01      0.4577259843E+00      0.1878919827E-04

    ------------------------------------------------
       NWT REQUIRED            2 OUTER ITERATIONS 
       AND A TOTAL OF          5 INNER ITERATIONS.
    ------------------------------------------------
          0                 1           3            12    3     2      -0.7661426947E-04      12    3    1      -0.6757009315E-01      0.1799340473E+00      0.4842264041E-01     -0.7661426947E-04

    ------------------------------------------------
       NWT REQUIRED            1 OUTER ITERATIONS 
       AND A TOTAL OF          3 INNER ITERATIONS.
    ------------------------------------------------
          0                 1           2             5    1     1       0.6170209701E-04       5    1    1       0.4443113401E-01      0.9218502513E-01      0.1799340473E+00      0.6170209701E-04

    ------------------------------------------------
       NWT REQUIRED            1 OUTER ITERATIONS 
       AND A TOTAL OF          2 INNER ITERATIONS.
    ------------------------------------------------
          0                 1           2             5    3     1       0.3693787310E-04       6    3    1       0.2819638391E-01      0.6297638188E-01      0.9218502513E-01      0.3693787310E-04

    ------------------------------------------------
       NWT REQUIRED            1 OUTER ITERATIONS 
       AND A TOTAL OF          2 INNER ITERATIONS.
    ------------------------------------------------

 OUTPUT CONTROL FOR STRESS PERIOD     22   TIME STEP     2
    SAVE BUDGET
 UBDSV1 SAVING "         STORAGE" ON UNIT7012 AT TIME STEP    2, STRESS PERIOD  22
 UBDSV2 SAVING "   CONSTANT HEAD" ON UNIT7012 AT TIME STEP    2, STRESS PERIOD  22
 UBDSV1 SAVING "FLOW RIGHT FACE " ON UNIT7012 AT TIME STEP    2, STRESS PERIOD  22
 UBDSV1 SAVING "FLOW FRONT FACE " ON UNIT7012 AT TIME STEP    2, STRESS PERIOD  22
 UBDSV1 SAVING "FLOW LOWER FACE " ON UNIT7012 AT TIME STEP    2, STRESS PERIOD  22
 UBDSV4 SAVING " GHOST-NODE HEAD" ON UNIT7012 AT TIME STEP    2, STRESS PERIOD  22
1
  VOLUMETRIC BUDGET FOR ENTIRE MODEL AT END OF TIME STEP    2 IN STRESS PERIOD     22
  ------------------------------------------------------------------------------

     CUMULATIVE VOLUMES      L**3       RATES FOR THIS TIME STEP      L**3/T
     ------------------                 ------------------------

           IN:                                      IN:
           ---                                      ---
             STORAGE =       54535.5352               STORAGE =         100.4425
       CONSTANT HEAD =           0.0000         CONSTANT HEAD =           0.0000
     GHOST-NODE HEAD =     2583972.0000       GHOST-NODE HEAD =        1498.3165

            TOTAL IN =     2638507.5000              TOTAL IN =        1598.7590

          OUT:                                     OUT:
          ----                                     ----
             STORAGE =     1629916.8750               STORAGE =           0.0000
       CONSTANT HEAD =           0.0000         CONSTANT HEAD =           0.0000
     GHOST-NODE HEAD =     1008593.6250       GHOST-NODE HEAD =        1598.8022

           TOTAL OUT =     2638510.5000             TOTAL OUT =        1598.8022

            IN - OUT =          -3.0000              IN - OUT =      -4.3213E-02

 PERCENT DISCREPANCY =          -0.00     PERCENT DISCREPANCY =          -0.00






          TIME SUMMARY AT END OF TIME STEP     2 IN STRESS PERIOD     22
                    SECONDS     MINUTES      HOURS       DAYS        YEARS
                    -----------------------------------------------------------
   TIME STEP LENGTH 1.31414E+06  21902.      365.04      15.210     4.16427E-02
 STRESS PERIOD TIME 2.62829E+06  43805.      730.08      30.420     8.32854E-02
         TOTAL TIME 5.78223E+07 9.63706E+05  16062.      669.24      1.8323    
1
1
  FLUX ACROSS PARENT-CHILD INTERFACE AT TIME STEP  2 IN STRESS PERIOD   22
  ------------------------------------------------------------------------
 G-N FLUX        PARENT        CHILD         DIFFERENCE      % DIFFERENCE
  RATE IN:      1.4984E+03    1.4983E+03     8.2275E-02        0.0055
 RATE OUT:      1.5987E+03    1.5988E+03    -1.4429E-01       -0.0090
1
                            STRESS PERIOD NO.     23, LENGTH =   30.42000    
                            -----------------------------------------------

                              NUMBER OF TIME STEPS =     2

                               MULTIPLIER FOR DELT =     1.000

                            INITIAL TIME STEP SIZE =   15.21000    
 
 SOLVING FOR HEAD 
                                                   Max.-Head-Change                        Max.-Flux-Residual
  Residual-Control   Outer-Iter.   Inner-Iter.     Column Row Layer    Max.-Head-Change    Column Row Layer    Max.-Flux-Residual            L2-New               L2-Old           Solver-Max-Delh
          0                 1           5             8    1     1       0.8056141330E-01       1    1    1       0.6815092248E+02      0.1868413814E+03      0.6297638188E-01      0.8056141330E-01
          0                 2           5             8    1     1      -0.6955062641E-02       1    1    1      -0.6795641973E+01      0.1869955249E+02      0.1868413814E+03     -0.6955062641E-02
          0                 3           3             8    1     1      -0.3466664503E-03       1    1    1      -0.3396918263E+00      0.9328656646E+00      0.1869955249E+02     -0.3466664503E-03
          0                 4           2             9    1     1      -0.2032885678E-04      10    1    1      -0.1910454745E-01      0.5524125569E-01      0.9328656646E+00     -0.2032885678E-04

    ------------------------------------------------
       NWT REQUIRED            4 OUTER ITERATIONS 
       AND A TOTAL OF         15 INNER ITERATIONS.
    ------------------------------------------------
                                                   Max.-Head-Change                        Max.-Flux-Residual
  Residual-Control   Outer-Iter.   Inner-Iter.     Column Row Layer    Max.-Head-Change    Column Row Layer    Max.-Flux-Residual            L2-New               L2-Old           Solver-Max-Delh
          0                 1           5             1    1     1       0.3036922866E-01       1    1    1       0.2685033856E+02      0.5980561604E+02      0.5524125569E-01      0.3036922866E-01
          0                 2           4             1    1     1      -0.2610726880E-02       1    1    1      -0.2676401881E+01      0.5963642292E+01      0.5980561604E+02     -0.2610726880E-02
          0                 3           3             1    1     1      -0.1345729023E-03       1    1    1      -0.1362743303E+00      0.3083983392E+00      0.5963642292E+01     -0.1345729023E-03
          0                 4           2             8    1     1      -0.6352764086E-05       8    1    1      -0.8541043149E-02      0.1882536184E-01      0.3083983392E+00     -0.6352764086E-05

    ------------------------------------------------
       NWT REQUIRED            4 OUTER ITERATIONS 
       AND A TOTAL OF         14 INNER ITERATIONS.
    ------------------------------------------------
                                                   Max.-Head-Change                        Max.-Flux-Residual
  Residual-Control   Outer-Iter.   Inner-Iter.     Column Row Layer    Max.-Head-Change    Column Row Layer    Max.-Flux-Residual            L2-New               L2-Old           Solver-Max-Delh
          0                 1           5             1    3     1       0.1188641659E-01       1    3    1       0.1052722233E+02      0.2252616751E+02      0.1882536184E-01      0.1188641659E-01
          0                 2           4             1    3     1      -0.1021689118E-02       1    3    1      -0.1046849468E+01      0.2249817153E+01      0.2252616751E+02     -0.1021689118E-02
          0                 3           3             1    3     1      -0.5327865839E-04       1    3    1      -0.5568748614E-01      0.1138766378E+00      0.2249817153E+01     -0.5327865839E-04

    ------------------------------------------------
       NWT REQUIRED            3 OUTER ITERATIONS 
       AND A TOTAL OF         12 INNER ITERATIONS.
    ------------------------------------------------
                                                   Max.-Head-Change                        Max.-Flux-Residual
  Residual-Control   Outer-Iter.   Inner-Iter.     Column Row Layer    Max.-Head-Change    Column Row Layer    Max.-Flux-Residual            L2-New               L2-Old           Solver-Max-Delh
          0                 1           4            11    1     1      -0.5176629444E-02      12    1    1      -0.5056533908E+01      0.1286296137E+02      0.1138766378E+00     -0.5176629444E-02
          0                 2           3            11    1     1       0.4510422833E-03      12    1    1       0.5100727203E+00      0.1288452442E+01      0.1286296137E+02      0.4510422833E-03
          0                 3           2            11    1     1       0.2430925984E-04      12    1    1       0.2659405081E-01      0.6922033733E-01      0.1288452442E+01      0.2430925984E-04

    ------------------------------------------------
       NWT REQUIRED            3 OUTER ITERATIONS 
       AND A TOTAL OF          9 INNER ITERATIONS.
    ------------------------------------------------
                                                   Max.-Head-Change                        Max.-Flux-Residual
  Residual-Control   Outer-Iter.   Inner-Iter.     Column Row Layer    Max.-Head-Change    Column Row Layer    Max.-Flux-Residual            L2-New               L2-Old           Solver-Max-Delh
          0                 1           4            10    1     1      -0.3253410068E-02      11    1    1      -0.2753723205E+01      0.7390784706E+01      0.6922033733E-01     -0.3253410068E-02
          0                 2           3            10    1     1       0.2793968669E-03      10    1    1       0.2741788252E+00      0.7381946188E+00      0.7390784706E+01      0.2793968669E-03
          0                 3           2            10    1     1       0.1233685941E-04      12    1    1       0.1416367374E-01      0.3758102088E-01      0.7381946188E+00      0.1233685941E-04

    ------------------------------------------------
       NWT REQUIRED            3 OUTER ITERATIONS 
       AND A TOTAL OF          9 INNER ITERATIONS.
    ------------------------------------------------
                                                   Max.-Head-Change                        Max.-Flux-Residual
  Residual-Control   Outer-Iter.   Inner-Iter.     Column Row Layer    Max.-Head-Change    Column Row Layer    Max.-Flux-Residual            L2-New               L2-Old           Solver-Max-Delh
          0                 1           4             9    1     1      -0.1687995732E-02      11    1    1      -0.1313461909E+01      0.3409242944E+01      0.3758102088E-01     -0.1687995732E-02
          0                 2           3            10    1     1       0.1444015999E-03      10    1    1       0.1321933302E+00      0.3370463209E+00      0.3409242944E+01      0.1444015999E-03
          0                 3           2             8    1     1       0.1104238734E-04      11    1    1       0.1005471696E-01      0.2534787632E-01      0.3370463209E+00      0.1104238734E-04

    ------------------------------------------------
       NWT REQUIRED            3 OUTER ITERATIONS 
       AND A TOTAL OF          9 INNER ITERATIONS.
    ------------------------------------------------
                                                   Max.-Head-Change                        Max.-Flux-Residual
  Residual-Control   Outer-Iter.   Inner-Iter.     Column Row Layer    Max.-Head-Change    Column Row Layer    Max.-Flux-Residual            L2-New               L2-Old           Solver-Max-Delh
          0                 1           3             8    1     1      -0.8013756974E-03       9    1    1      -0.4811411301E+00      0.1458581965E+01      0.2534787632E-01     -0.8013756974E-03
          0                 2           3             8    1     1       0.7397265010E-04       8    1    1       0.5277916417E-01      0.1482669793E+00      0.1458581965E+01      0.7397265010E-04

    ------------------------------------------------
       NWT REQUIRED            2 OUTER ITERATIONS 
       AND A TOTAL OF          6 INNER ITERATIONS.
    ------------------------------------------------
                                                   Max.-Head-Change                        Max.-Flux-Residual
  Residual-Control   Outer-Iter.   Inner-Iter.     Column Row Layer    Max.-Head-Change    Column Row Layer    Max.-Flux-Residual            L2-New               L2-Old           Solver-Max-Delh
          0                 1           3             6    3     2      -0.4094108152E-03       1    3    1      -0.3701300612E+00      0.8462520930E+00      0.1482669793E+00     -0.4094108152E-03
          0                 2           2             5    3     1       0.3862587491E-04       1    3    1       0.3711226059E-01      0.9145997621E-01      0.8462520930E+00      0.3862587491E-04

    ------------------------------------------------
       NWT REQUIRED            2 OUTER ITERATIONS 
       AND A TOTAL OF          5 INNER ITERATIONS.
    ------------------------------------------------
                                                   Max.-Head-Change                        Max.-Flux-Residual
  Residual-Control   Outer-Iter.   Inner-Iter.     Column Row Layer    Max.-Head-Change    Column Row Layer    Max.-Flux-Residual            L2-New               L2-Old           Solver-Max-Delh
          0                 1           3             1    3     1      -0.2654629758E-03       1    3    1      -0.2387367468E+00      0.5671403868E+00      0.9145997621E-01     -0.2654629758E-03
          0                 2           2             7    3     1       0.2415817901E-04       1    3    1       0.1928660349E-01      0.6079680861E-01      0.5671403868E+00      0.2415817901E-04

    ------------------------------------------------
       NWT REQUIRED            2 OUTER ITERATIONS 
       AND A TOTAL OF          5 INNER ITERATIONS.
    ------------------------------------------------
                                                   Max.-Head-Change                        Max.-Flux-Residual
  Residual-Control   Outer-Iter.   Inner-Iter.     Column Row Layer    Max.-Head-Change    Column Row Layer    Max.-Flux-Residual            L2-New               L2-Old           Solver-Max-Delh
          0                 1           3             1    3     1      -0.1533918078E-03       1    3    1      -0.1394628159E+00      0.3099636796E+00      0.6079680861E-01     -0.1533918078E-03
          0                 2           2             1    3     1       0.1857542379E-04       1    3    1       0.2382482158E-01      0.4036494638E-01      0.3099636796E+00      0.1857542379E-04

    ------------------------------------------------
       NWT REQUIRED            2 OUTER ITERATIONS 
       AND A TOTAL OF          5 INNER ITERATIONS.
    ------------------------------------------------
          0                 1           3             1    3     1      -0.9026577228E-04       1    3    1      -0.8742517419E-01      0.1517277991E+00      0.4036494638E-01     -0.9026577228E-04

    ------------------------------------------------
       NWT REQUIRED            1 OUTER ITERATIONS 
       AND A TOTAL OF          3 INNER ITERATIONS.
    ------------------------------------------------

 OUTPUT CONTROL FOR STRESS PERIOD     23   TIME STEP     1
    SAVE BUDGET
 UBDSV1 SAVING "         STORAGE" ON UNIT7012 AT TIME STEP    1, STRESS PERIOD  23
 UBDSV2 SAVING "   CONSTANT HEAD" ON UNIT7012 AT TIME STEP    1, STRESS PERIOD  23
 UBDSV1 SAVING "FLOW RIGHT FACE " ON UNIT7012 AT TIME STEP    1, STRESS PERIOD  23
 UBDSV1 SAVING "FLOW FRONT FACE " ON UNIT7012 AT TIME STEP    1, STRESS PERIOD  23
 UBDSV1 SAVING "FLOW LOWER FACE " ON UNIT7012 AT TIME STEP    1, STRESS PERIOD  23
 UBDSV4 SAVING " GHOST-NODE HEAD" ON UNIT7012 AT TIME STEP    1, STRESS PERIOD  23
1
  FLUX ACROSS PARENT-CHILD INTERFACE AT TIME STEP  1 IN STRESS PERIOD   23
  ------------------------------------------------------------------------
 G-N FLUX        PARENT        CHILD         DIFFERENCE      % DIFFERENCE
  RATE IN:      1.7947E+03    1.7948E+03    -7.5928E-02       -0.0042
 RATE OUT:      1.7199E+03    1.7200E+03    -1.0864E-01       -0.0063
 
 SOLVING FOR HEAD 
                                                   Max.-Head-Change                        Max.-Flux-Residual
  Residual-Control   Outer-Iter.   Inner-Iter.     Column Row Layer    Max.-Head-Change    Column Row Layer    Max.-Flux-Residual            L2-New               L2-Old           Solver-Max-Delh
          0                 1           5            10    1     1       0.6140200037E-01      12    1    1       0.4924666841E+02      0.1277371960E+03      0.1517277991E+00      0.6140200037E-01
          0                 2           4            10    1     1      -0.5306065797E-02      12    1    1      -0.4953083566E+01      0.1275934772E+02      0.1277371960E+03     -0.5306065797E-02
          0                 3           3            10    1     1      -0.2656379373E-03      12    1    1      -0.2454566986E+00      0.6391185584E+00      0.1275934772E+02     -0.2656379373E-03
          0                 4           2             1    1     1      -0.1427698173E-04       1    1    1      -0.1833036263E-01      0.3632991732E-01      0.6391185584E+00     -0.1427698173E-04

    ------------------------------------------------
       NWT REQUIRED            4 OUTER ITERATIONS 
       AND A TOTAL OF         14 INNER ITERATIONS.
    ------------------------------------------------
                                                   Max.-Head-Change                        Max.-Flux-Residual
  Residual-Control   Outer-Iter.   Inner-Iter.     Column Row Layer    Max.-Head-Change    Column Row Layer    Max.-Flux-Residual            L2-New               L2-Old           Solver-Max-Delh
          0                 1           5             1    1     1       0.2070261377E-01       1    1    1       0.1772346079E+02      0.3586534614E+02      0.3632991732E-01      0.2070261377E-01
          0                 2           4             1    1     1      -0.1780787814E-02       1    1    1      -0.1767931813E+01      0.3569526888E+01      0.3586534614E+02     -0.1780787814E-02
          0                 3           3             1    1     1      -0.8638951315E-04       1    1    1      -0.8178945340E-01      0.1784385488E+00      0.3569526888E+01     -0.8638951315E-04

    ------------------------------------------------
       NWT REQUIRED            3 OUTER ITERATIONS 
       AND A TOTAL OF         12 INNER ITERATIONS.
    ------------------------------------------------
                                                   Max.-Head-Change                        Max.-Flux-Residual
  Residual-Control   Outer-Iter.   Inner-Iter.     Column Row Layer    Max.-Head-Change    Column Row Layer    Max.-Flux-Residual            L2-New               L2-Old           Solver-Max-Delh
          0                 1           5             1    3     1       0.9868865675E-02       1    3    1       0.8230259285E+01      0.1747170803E+02      0.1784385488E+00      0.9868865675E-02
          0                 2           4             1    3     1      -0.8493650554E-03       1    3    1      -0.8202851167E+00      0.1743944834E+01      0.1747170803E+02     -0.8493650554E-03
          0                 3           3             1    3     1      -0.4095157893E-04       1    3    1      -0.4015937215E-01      0.8287968777E-01      0.1743944834E+01     -0.4095157893E-04

    ------------------------------------------------
       NWT REQUIRED            3 OUTER ITERATIONS 
       AND A TOTAL OF         12 INNER ITERATIONS.
    ------------------------------------------------
                                                   Max.-Head-Change                        Max.-Flux-Residual
  Residual-Control   Outer-Iter.   Inner-Iter.     Column Row Layer    Max.-Head-Change    Column Row Layer    Max.-Flux-Residual            L2-New               L2-Old           Solver-Max-Delh
          0                 1           4             1    3     1       0.4787113698E-02       1    3    1       0.4128367167E+01      0.9081781465E+01      0.8287968777E-01      0.4787113698E-02
          0                 2           4             1    3     1      -0.4125360242E-03       1    3    1      -0.4129382413E+00      0.9077617341E+00      0.9081781465E+01     -0.4125360242E-03
          0                 3           2             1    3     1      -0.2223997531E-04       1    3    1      -0.2244584507E-01      0.5007198197E-01      0.9077617341E+00     -0.2223997531E-04

    ------------------------------------------------
       NWT REQUIRED            3 OUTER ITERATIONS 
       AND A TOTAL OF         10 INNER ITERATIONS.
    ------------------------------------------------
                                                   Max.-Head-Change                        Max.-Flux-Residual
  Residual-Control   Outer-Iter.   Inner-Iter.     Column Row Layer    Max.-Head-Change    Column Row Layer    Max.-Flux-Residual            L2-New               L2-Old           Solver-Max-Delh
          0                 1           4             2    3     1       0.2071658249E-02       1    3    1       0.1814235159E+01      0.4328743659E+01      0.5007198197E-01      0.2071658249E-02
          0                 2           3             1    3     1      -0.1760249573E-03       1    3    1      -0.1829412158E+00      0.4295437690E+00      0.4328743659E+01     -0.1760249573E-03
          0                 3           2             1    3     1      -0.1254101884E-04       1    3    1      -0.1306042727E-01      0.3107845665E-01      0.4295437690E+00     -0.1254101884E-04

    ------------------------------------------------
       NWT REQUIRED            3 OUTER ITERATIONS 
       AND A TOTAL OF          9 INNER ITERATIONS.
    ------------------------------------------------
                                                   Max.-Head-Change                        Max.-Flux-Residual
  Residual-Control   Outer-Iter.   Inner-Iter.     Column Row Layer    Max.-Head-Change    Column Row Layer    Max.-Flux-Residual            L2-New               L2-Old           Solver-Max-Delh
          0                 1           4             2    3     1       0.7723638213E-03       1    3    1       0.6698269494E+00      0.1666242249E+01      0.3107845665E-01      0.7723638213E-03
          0                 2           3             2    3     1      -0.6383264629E-04       1    3    1      -0.5982746818E-01      0.1608105716E+00      0.1666242249E+01     -0.6383264629E-04

    ------------------------------------------------
       NWT REQUIRED            2 OUTER ITERATIONS 
       AND A TOTAL OF          7 INNER ITERATIONS.
    ------------------------------------------------
                                                   Max.-Head-Change                        Max.-Flux-Residual
  Residual-Control   Outer-Iter.   Inner-Iter.     Column Row Layer    Max.-Head-Change    Column Row Layer    Max.-Flux-Residual            L2-New               L2-Old           Solver-Max-Delh
          0                 1           3             1    1     2       0.1967712784E-03      12    3    1       0.1880311674E+00      0.4287553283E+00      0.1608105716E+00      0.1967712784E-03
          0                 2           2             1    1     2      -0.1658847185E-04      12    3    1      -0.1444766906E-01      0.3876830354E-01      0.4287553283E+00     -0.1658847185E-04

    ------------------------------------------------
       NWT REQUIRED            2 OUTER ITERATIONS 
       AND A TOTAL OF          5 INNER ITERATIONS.
    ------------------------------------------------
          0                 1           2             3    1     2       0.8401836390E-04      12    2    1       0.6597840553E-01      0.1921202866E+00      0.3876830354E-01      0.8401836390E-04

    ------------------------------------------------
       NWT REQUIRED            1 OUTER ITERATIONS 
       AND A TOTAL OF          2 INNER ITERATIONS.
    ------------------------------------------------
          0                 1           3             8    3     1      -0.6656203245E-04       9    3    1      -0.5784065556E-01      0.1701847843E+00      0.1921202866E+00     -0.6656203245E-04

    ------------------------------------------------
       NWT REQUIRED            1 OUTER ITERATIONS 
       AND A TOTAL OF          3 INNER ITERATIONS.
    ------------------------------------------------
          0                 1           3             4    3     1      -0.4503463430E-04       1    3    1      -0.4221304366E-01      0.1070084893E+00      0.1701847843E+00     -0.4503463430E-04

    ------------------------------------------------
       NWT REQUIRED            1 OUTER ITERATIONS 
       AND A TOTAL OF          3 INNER ITERATIONS.
    ------------------------------------------------

 OUTPUT CONTROL FOR STRESS PERIOD     23   TIME STEP     2
    SAVE BUDGET
 UBDSV1 SAVING "         STORAGE" ON UNIT7012 AT TIME STEP    2, STRESS PERIOD  23
 UBDSV2 SAVING "   CONSTANT HEAD" ON UNIT7012 AT TIME STEP    2, STRESS PERIOD  23
 UBDSV1 SAVING "FLOW RIGHT FACE " ON UNIT7012 AT TIME STEP    2, STRESS PERIOD  23
 UBDSV1 SAVING "FLOW FRONT FACE " ON UNIT7012 AT TIME STEP    2, STRESS PERIOD  23
 UBDSV1 SAVING "FLOW LOWER FACE " ON UNIT7012 AT TIME STEP    2, STRESS PERIOD  23
 UBDSV4 SAVING " GHOST-NODE HEAD" ON UNIT7012 AT TIME STEP    2, STRESS PERIOD  23
1
  VOLUMETRIC BUDGET FOR ENTIRE MODEL AT END OF TIME STEP    2 IN STRESS PERIOD     23
  ------------------------------------------------------------------------------

     CUMULATIVE VOLUMES      L**3       RATES FOR THIS TIME STEP      L**3/T
     ------------------                 ------------------------

           IN:                                      IN:
           ---                                      ---
             STORAGE =       54595.0078               STORAGE =           0.0000
       CONSTANT HEAD =           0.0000         CONSTANT HEAD =           0.0000
     GHOST-NODE HEAD =     2639806.0000       GHOST-NODE HEAD =        1876.1169

            TOTAL IN =     2694401.0000              TOTAL IN =        1876.1169

          OUT:                                     OUT:
          ----                                     ----
             STORAGE =     1632427.8750               STORAGE =          86.4876
       CONSTANT HEAD =           0.0000         CONSTANT HEAD =           0.0000
     GHOST-NODE HEAD =     1061975.2500       GHOST-NODE HEAD =        1789.6111

           TOTAL OUT =     2694403.0000             TOTAL OUT =        1876.0988

            IN - OUT =          -2.0000              IN - OUT =       1.8188E-02

 PERCENT DISCREPANCY =          -0.00     PERCENT DISCREPANCY =           0.00






          TIME SUMMARY AT END OF TIME STEP     2 IN STRESS PERIOD     23
                    SECONDS     MINUTES      HOURS       DAYS        YEARS
                    -----------------------------------------------------------
   TIME STEP LENGTH 1.31414E+06  21902.      365.04      15.210     4.16427E-02
 STRESS PERIOD TIME 2.62829E+06  43805.      730.08      30.420     8.32854E-02
         TOTAL TIME 6.04506E+07 1.00751E+06  16792.      699.66      1.9156    
1
1
  FLUX ACROSS PARENT-CHILD INTERFACE AT TIME STEP  2 IN STRESS PERIOD   23
  ------------------------------------------------------------------------
 G-N FLUX        PARENT        CHILD         DIFFERENCE      % DIFFERENCE
  RATE IN:      1.8759E+03    1.8761E+03    -2.3425E-01       -0.0125
 RATE OUT:      1.7896E+03    1.7896E+03    -2.1606E-02       -0.0012
1
                            STRESS PERIOD NO.     24, LENGTH =   30.42000    
                            -----------------------------------------------

                              NUMBER OF TIME STEPS =     2

                               MULTIPLIER FOR DELT =     1.000

                            INITIAL TIME STEP SIZE =   15.21000    
 
 SOLVING FOR HEAD 
                                                   Max.-Head-Change                        Max.-Flux-Residual
  Residual-Control   Outer-Iter.   Inner-Iter.     Column Row Layer    Max.-Head-Change    Column Row Layer    Max.-Flux-Residual            L2-New               L2-Old           Solver-Max-Delh
          0                 1           6            12    1     1       0.1510263685E+00      12    1    1       0.1205919831E+03      0.3201449050E+03      0.1070084893E+00      0.1510263685E+00
          0                 2           5            12    1     1      -0.1311740976E-01      12    1    1      -0.1214039896E+02      0.3205351219E+02      0.3201449050E+03     -0.1311740976E-01
          0                 3           4            12    1     1      -0.6510797094E-03      12    1    1      -0.6033285158E+00      0.1596076403E+01      0.3205351219E+02     -0.6510797094E-03
          0                 4           3            12    3     1      -0.3372806019E-04       1    3    1      -0.3278778261E-01      0.8777201869E-01      0.1596076403E+01     -0.3372806019E-04

    ------------------------------------------------
       NWT REQUIRED            4 OUTER ITERATIONS 
       AND A TOTAL OF         18 INNER ITERATIONS.
    ------------------------------------------------
                                                   Max.-Head-Change                        Max.-Flux-Residual
  Residual-Control   Outer-Iter.   Inner-Iter.     Column Row Layer    Max.-Head-Change    Column Row Layer    Max.-Flux-Residual            L2-New               L2-Old           Solver-Max-Delh
          0                 1           6            12    1     1       0.6617929728E-01      12    1    1       0.5268524763E+02      0.1458048653E+03      0.8777201869E-01      0.6617929728E-01
          0                 2           4            12    1     1      -0.5740892583E-02      12    1    1      -0.5289735177E+01      0.1459136197E+02      0.1458048653E+03     -0.5740892583E-02
          0                 3           3            12    1     1      -0.2883014083E-03      12    1    1      -0.2692980923E+00      0.7300842734E+00      0.1459136197E+02     -0.2883014083E-03
          0                 4           2            12    2     1      -0.1572394241E-04       1    1    1      -0.1570084773E-01      0.3941548694E-01      0.7300842734E+00     -0.1572394241E-04

    ------------------------------------------------
       NWT REQUIRED            4 OUTER ITERATIONS 
       AND A TOTAL OF         15 INNER ITERATIONS.
    ------------------------------------------------
                                                   Max.-Head-Change                        Max.-Flux-Residual
  Residual-Control   Outer-Iter.   Inner-Iter.     Column Row Layer    Max.-Head-Change    Column Row Layer    Max.-Flux-Residual            L2-New               L2-Old           Solver-Max-Delh
          0                 1           5            12    1     1       0.2980861820E-01      12    1    1       0.2346875460E+02      0.6705092380E+02      0.3941548694E-01      0.2980861820E-01
          0                 2           4            12    1     1      -0.2585754023E-02      12    1    1      -0.2357072406E+01      0.6704313169E+01      0.6705092380E+02     -0.2585754023E-02
          0                 3           3            12    3     1      -0.1257363760E-03       1    1    1      -0.1205673150E+00      0.3308633545E+00      0.6704313169E+01     -0.1257363760E-03
          0                 4           2            12    1     1      -0.1116859358E-04       1    3    1      -0.1282467577E-01      0.2942072607E-01      0.3308633545E+00     -0.1116859358E-04

    ------------------------------------------------
       NWT REQUIRED            4 OUTER ITERATIONS 
       AND A TOTAL OF         14 INNER ITERATIONS.
    ------------------------------------------------
                                                   Max.-Head-Change                        Max.-Flux-Residual
  Residual-Control   Outer-Iter.   Inner-Iter.     Column Row Layer    Max.-Head-Change    Column Row Layer    Max.-Flux-Residual            L2-New               L2-Old           Solver-Max-Delh
          0                 1           5            12    3     1       0.1269114055E-01      12    3    1       0.9883429076E+01      0.2885594059E+02      0.2942072607E-01      0.1269114055E-01
          0                 2           4            12    3     1      -0.1101466217E-02      12    3    1      -0.9919539985E+00      0.2887038033E+01      0.2885594059E+02     -0.1101466217E-02
          0                 3           3            12    3     1      -0.5598603256E-04      12    3    1      -0.5331097424E-01      0.1420154181E+00      0.2887038033E+01     -0.5598603256E-04

    ------------------------------------------------
       NWT REQUIRED            3 OUTER ITERATIONS 
       AND A TOTAL OF         12 INNER ITERATIONS.
    ------------------------------------------------
                                                   Max.-Head-Change                        Max.-Flux-Residual
  Residual-Control   Outer-Iter.   Inner-Iter.     Column Row Layer    Max.-Head-Change    Column Row Layer    Max.-Flux-Residual            L2-New               L2-Old           Solver-Max-Delh
          0                 1           4            12    3     2       0.5041187118E-02      12    3    1       0.3913661567E+01      0.1125688523E+02      0.1420154181E+00      0.5041187118E-02
          0                 2           4            12    3     2      -0.4350998521E-03      12    3    1      -0.3944973940E+00      0.1124959894E+01      0.1125688523E+02     -0.4350998521E-03
          0                 3           2            12    3     1      -0.2438598314E-04      12    3    1      -0.2316772105E-01      0.6162684701E-01      0.1124959894E+01     -0.2438598314E-04

    ------------------------------------------------
       NWT REQUIRED            3 OUTER ITERATIONS 
       AND A TOTAL OF         10 INNER ITERATIONS.
    ------------------------------------------------
                                                   Max.-Head-Change                        Max.-Flux-Residual
  Residual-Control   Outer-Iter.   Inner-Iter.     Column Row Layer    Max.-Head-Change    Column Row Layer    Max.-Flux-Residual            L2-New               L2-Old           Solver-Max-Delh
          0                 1           4            12    3     2       0.1832463287E-02       1    3    1       0.1375466739E+01      0.3742845831E+01      0.6162684701E-01      0.1832463287E-02
          0                 2           3            12    3     2      -0.1587241385E-03      12    3    1      -0.1390496051E+00      0.3766194616E+00      0.3742845831E+01     -0.1587241385E-03
          0                 3           2             1    3     1      -0.1290286396E-04       1    3    1      -0.1246472553E-01      0.3222833325E-01      0.3766194616E+00     -0.1290286396E-04

    ------------------------------------------------
       NWT REQUIRED            3 OUTER ITERATIONS 
       AND A TOTAL OF          9 INNER ITERATIONS.
    ------------------------------------------------
                                                   Max.-Head-Change                        Max.-Flux-Residual
  Residual-Control   Outer-Iter.   Inner-Iter.     Column Row Layer    Max.-Head-Change    Column Row Layer    Max.-Flux-Residual            L2-New               L2-Old           Solver-Max-Delh
          0                 1           3             1    3     2       0.5724701025E-03       1    3    1       0.3399293529E+00      0.8406516742E+00      0.3222833325E-01      0.5724701025E-03
          0                 2           3             1    3     2      -0.4932306729E-04       1    3    1      -0.3350817144E-01      0.7876960412E-01      0.8406516742E+00     -0.4932306729E-04

    ------------------------------------------------
       NWT REQUIRED            2 OUTER ITERATIONS 
       AND A TOTAL OF          6 INNER ITERATIONS.
    ------------------------------------------------
                                                   Max.-Head-Change                        Max.-Flux-Residual
  Residual-Control   Outer-Iter.   Inner-Iter.     Column Row Layer    Max.-Head-Change    Column Row Layer    Max.-Flux-Residual            L2-New               L2-Old           Solver-Max-Delh
          0                 1           3             1    2     3       0.1437018873E-03       9    3    1      -0.7238906500E-01      0.2251918395E+00      0.7876960412E-01      0.1437018873E-03
          0                 2           2             8    3     1       0.1397926719E-04       8    3    1       0.1232142455E-01      0.2980211922E-01      0.2251918395E+00      0.1397926719E-04

    ------------------------------------------------
       NWT REQUIRED            2 OUTER ITERATIONS 
       AND A TOTAL OF          5 INNER ITERATIONS.
    ------------------------------------------------
                                                   Max.-Head-Change                        Max.-Flux-Residual
  Residual-Control   Outer-Iter.   Inner-Iter.     Column Row Layer    Max.-Head-Change    Column Row Layer    Max.-Flux-Residual            L2-New               L2-Old           Solver-Max-Delh
          0                 1           3            12    1     1      -0.1588176405E-03      12    1    1      -0.1238935012E+00      0.3569690877E+00      0.2980211922E-01     -0.1588176405E-03
          0                 2           2            12    3     1       0.2003819635E-04      12    3    1       0.2277944077E-01      0.4531203833E-01      0.3569690877E+00      0.2003819635E-04

    ------------------------------------------------
       NWT REQUIRED            2 OUTER ITERATIONS 
       AND A TOTAL OF          5 INNER ITERATIONS.
    ------------------------------------------------
                                                   Max.-Head-Change                        Max.-Flux-Residual
  Residual-Control   Outer-Iter.   Inner-Iter.     Column Row Layer    Max.-Head-Change    Column Row Layer    Max.-Flux-Residual            L2-New               L2-Old           Solver-Max-Delh
          0                 1           3            12    1     1      -0.1320955364E-03      12    1    1      -0.1046648792E+00      0.3120199670E+00      0.4531203833E-01     -0.1320955364E-03
          0                 2           2            12    1     1       0.1698046487E-04       1    1    1       0.1915565773E-01      0.4426537945E-01      0.3120199670E+00      0.1698046487E-04

    ------------------------------------------------
       NWT REQUIRED            2 OUTER ITERATIONS 
       AND A TOTAL OF          5 INNER ITERATIONS.
    ------------------------------------------------
          0                 1           3            12    3     1      -0.9786585266E-04      12    3    1      -0.7772940979E-01      0.1970299002E+00      0.4426537945E-01     -0.9786585266E-04

    ------------------------------------------------
       NWT REQUIRED            1 OUTER ITERATIONS 
       AND A TOTAL OF          3 INNER ITERATIONS.
    ------------------------------------------------

 OUTPUT CONTROL FOR STRESS PERIOD     24   TIME STEP     1
    SAVE BUDGET
 UBDSV1 SAVING "         STORAGE" ON UNIT7012 AT TIME STEP    1, STRESS PERIOD  24
 UBDSV2 SAVING "   CONSTANT HEAD" ON UNIT7012 AT TIME STEP    1, STRESS PERIOD  24
 UBDSV1 SAVING "FLOW RIGHT FACE " ON UNIT7012 AT TIME STEP    1, STRESS PERIOD  24
 UBDSV1 SAVING "FLOW FRONT FACE " ON UNIT7012 AT TIME STEP    1, STRESS PERIOD  24
 UBDSV1 SAVING "FLOW LOWER FACE " ON UNIT7012 AT TIME STEP    1, STRESS PERIOD  24
 UBDSV4 SAVING " GHOST-NODE HEAD" ON UNIT7012 AT TIME STEP    1, STRESS PERIOD  24
1
  FLUX ACROSS PARENT-CHILD INTERFACE AT TIME STEP  1 IN STRESS PERIOD   24
  ------------------------------------------------------------------------
 G-N FLUX        PARENT        CHILD         DIFFERENCE      % DIFFERENCE
  RATE IN:      1.9938E+03    1.9941E+03    -3.1836E-01       -0.0160
 RATE OUT:      1.6993E+03    1.6991E+03     1.9873E-01        0.0117
 
 SOLVING FOR HEAD 
                                                   Max.-Head-Change                        Max.-Flux-Residual
  Residual-Control   Outer-Iter.   Inner-Iter.     Column Row Layer    Max.-Head-Change    Column Row Layer    Max.-Flux-Residual            L2-New               L2-Old           Solver-Max-Delh
          0                 1           6            12    3     1       0.1292541586E+00      12    3    1       0.9800357198E+02      0.2779623857E+03      0.1970299002E+00      0.1292541586E+00
          0                 2           5            12    3     1      -0.1124434352E-01      12    3    1      -0.9889047831E+01      0.2781211026E+02      0.2779623857E+03     -0.1124434352E-01
          0                 3           4            12    3     1      -0.5571334694E-03      12    3    1      -0.4894645863E+00      0.1394196017E+01      0.2781211026E+02     -0.5571334694E-03
          0                 4           2            12    1     1      -0.3042060083E-04      12    1    1      -0.3340599104E-01      0.7025150570E-01      0.1394196017E+01     -0.3042060083E-04

    ------------------------------------------------
       NWT REQUIRED            4 OUTER ITERATIONS 
       AND A TOTAL OF         17 INNER ITERATIONS.
    ------------------------------------------------
                                                   Max.-Head-Change                        Max.-Flux-Residual
  Residual-Control   Outer-Iter.   Inner-Iter.     Column Row Layer    Max.-Head-Change    Column Row Layer    Max.-Flux-Residual            L2-New               L2-Old           Solver-Max-Delh
          0                 1           6            12    3     2       0.5715380598E-01      12    3    1       0.4521518395E+02      0.1247188173E+03      0.7025150570E-01      0.5715380598E-01
          0                 2           4            12    3     2      -0.4939174861E-02      12    3    1      -0.4556211544E+01      0.1247984821E+02      0.1247188173E+03     -0.4939174861E-02
          0                 3           3            12    3     2      -0.2470232837E-03      12    3    1      -0.2267273180E+00      0.6267881620E+00      0.1247984821E+02     -0.2470232837E-03
          0                 4           2            12    3     2      -0.1205088716E-04       1    1    1      -0.1066834794E-01      0.2850635599E-01      0.6267881620E+00     -0.1205088716E-04

    ------------------------------------------------
       NWT REQUIRED            4 OUTER ITERATIONS 
       AND A TOTAL OF         15 INNER ITERATIONS.
    ------------------------------------------------
                                                   Max.-Head-Change                        Max.-Flux-Residual
  Residual-Control   Outer-Iter.   Inner-Iter.     Column Row Layer    Max.-Head-Change    Column Row Layer    Max.-Flux-Residual            L2-New               L2-Old           Solver-Max-Delh
          0                 1           5            12    3     2       0.2774230231E-01      12    3    1       0.2148449271E+02      0.6229415363E+02      0.2850635599E-01      0.2774230231E-01
          0                 2           4            12    3     2      -0.2397465369E-02      12    3    1      -0.2169336541E+01      0.6235371643E+01      0.6229415363E+02     -0.2397465369E-02
          0                 3           3            12    3     1      -0.1209045400E-03      12    3    1      -0.1127129340E+00      0.3093666792E+00      0.6235371643E+01     -0.1209045400E-03
          0                 4           2             1    1     1      -0.1039778734E-04       1    1    1      -0.1136290212E-01      0.2434184933E-01      0.3093666792E+00     -0.1039778734E-04

    ------------------------------------------------
       NWT REQUIRED            4 OUTER ITERATIONS 
       AND A TOTAL OF         14 INNER ITERATIONS.
    ------------------------------------------------
                                                   Max.-Head-Change                        Max.-Flux-Residual
  Residual-Control   Outer-Iter.   Inner-Iter.     Column Row Layer    Max.-Head-Change    Column Row Layer    Max.-Flux-Residual            L2-New               L2-Old           Solver-Max-Delh
          0                 1           5            12    1     2       0.1308445744E-01      12    1    1       0.1004747187E+02      0.2958213446E+02      0.2434184933E-01      0.1308445744E-01
          0                 2           4            12    1     2      -0.1130507486E-02      12    1    1      -0.1001956930E+01      0.2959195819E+01      0.2958213446E+02     -0.1130507486E-02
          0                 3           3            12    1     2      -0.5637817961E-04      12    1    1      -0.5119787424E-01      0.1467826875E+00      0.2959195819E+01     -0.5637817961E-04

    ------------------------------------------------
       NWT REQUIRED            3 OUTER ITERATIONS 
       AND A TOTAL OF         12 INNER ITERATIONS.
    ------------------------------------------------
                                                   Max.-Head-Change                        Max.-Flux-Residual
  Residual-Control   Outer-Iter.   Inner-Iter.     Column Row Layer    Max.-Head-Change    Column Row Layer    Max.-Flux-Residual            L2-New               L2-Old           Solver-Max-Delh
          0                 1           4            12    1     2       0.5966612049E-02      12    1    1       0.4575572969E+01      0.1324968776E+02      0.1467826875E+00      0.5966612049E-02
          0                 2           4            12    1     2      -0.5145398381E-03      12    1    1      -0.4612629616E+00      0.1323100529E+01      0.1324968776E+02     -0.5145398381E-03
          0                 3           2            12    1     1      -0.2660909844E-04      12    1    1      -0.2650610852E-01      0.6707869241E-01      0.1323100529E+01     -0.2660909844E-04

    ------------------------------------------------
       NWT REQUIRED            3 OUTER ITERATIONS 
       AND A TOTAL OF         10 INNER ITERATIONS.
    ------------------------------------------------
                                                   Max.-Head-Change                        Max.-Flux-Residual
  Residual-Control   Outer-Iter.   Inner-Iter.     Column Row Layer    Max.-Head-Change    Column Row Layer    Max.-Flux-Residual            L2-New               L2-Old           Solver-Max-Delh
          0                 1           4            11    1     2       0.2569591145E-02      12    1    1       0.1933459062E+01      0.5522101584E+01      0.6707869241E-01      0.2569591145E-02
          0                 2           3            11    1     2      -0.2212975224E-03      12    1    1      -0.1879879385E+00      0.5541756629E+00      0.5522101584E+01     -0.2212975224E-03
          0                 3           2            11    1     1      -0.1152966032E-04      12    3    1      -0.9296309145E-02      0.2769363263E-01      0.5541756629E+00     -0.1152966032E-04

    ------------------------------------------------
       NWT REQUIRED            3 OUTER ITERATIONS 
       AND A TOTAL OF          9 INNER ITERATIONS.
    ------------------------------------------------
                                                   Max.-Head-Change                        Max.-Flux-Residual
  Residual-Control   Outer-Iter.   Inner-Iter.     Column Row Layer    Max.-Head-Change    Column Row Layer    Max.-Flux-Residual            L2-New               L2-Old           Solver-Max-Delh
          0                 1           4            12    1     2       0.1007356484E-02      12    1    1       0.7455259386E+00      0.2062456066E+01      0.2769363263E-01      0.1007356484E-02
          0                 2           3            12    1     2      -0.8716349602E-04      12    1    1      -0.7418771210E-01      0.2111066038E+00      0.2062456066E+01     -0.8716349602E-04

    ------------------------------------------------
       NWT REQUIRED            2 OUTER ITERATIONS 
       AND A TOTAL OF          7 INNER ITERATIONS.
    ------------------------------------------------
                                                   Max.-Head-Change                        Max.-Flux-Residual
  Residual-Control   Outer-Iter.   Inner-Iter.     Column Row Layer    Max.-Head-Change    Column Row Layer    Max.-Flux-Residual            L2-New               L2-Old           Solver-Max-Delh
          0                 1           3            12    1     2       0.3289324805E-03      12    1    1       0.2390614568E+00      0.6206557163E+00      0.2111066038E+00      0.3289324805E-03
          0                 2           2            12    1     2      -0.2876797492E-04      12    1    1      -0.2733360080E-01      0.6839909911E-01      0.6206557163E+00     -0.2876797492E-04

    ------------------------------------------------
       NWT REQUIRED            2 OUTER ITERATIONS 
       AND A TOTAL OF          5 INNER ITERATIONS.
    ------------------------------------------------
          0                 1           3             1    3     3       0.9921065735E-04       1    3    1       0.4962564842E-01      0.1101766442E+00      0.6839909911E-01      0.9921065735E-04

    ------------------------------------------------
       NWT REQUIRED            1 OUTER ITERATIONS 
       AND A TOTAL OF          3 INNER ITERATIONS.
    ------------------------------------------------
          0                 1           2             7    1     1      -0.4606985079E-04       7    1    1      -0.2900223166E-01      0.8538512816E-01      0.1101766442E+00     -0.4606985079E-04

    ------------------------------------------------
       NWT REQUIRED            1 OUTER ITERATIONS 
       AND A TOTAL OF          2 INNER ITERATIONS.
    ------------------------------------------------
          0                 1           3            11    1     1      -0.4475789619E-04       1    3    1      -0.3476919624E-01      0.1004343601E+00      0.8538512816E-01     -0.4475789619E-04

    ------------------------------------------------
       NWT REQUIRED            1 OUTER ITERATIONS 
       AND A TOTAL OF          3 INNER ITERATIONS.
    ------------------------------------------------

 OUTPUT CONTROL FOR STRESS PERIOD     24   TIME STEP     2
    PRINT BUDGET
    SAVE HEAD FOR ALL LAYERS
    SAVE BUDGET
 UBDSV1 SAVING "         STORAGE" ON UNIT7012 AT TIME STEP    2, STRESS PERIOD  24
 UBDSV2 SAVING "   CONSTANT HEAD" ON UNIT7012 AT TIME STEP    2, STRESS PERIOD  24
 UBDSV1 SAVING "FLOW RIGHT FACE " ON UNIT7012 AT TIME STEP    2, STRESS PERIOD  24
 UBDSV1 SAVING "FLOW FRONT FACE " ON UNIT7012 AT TIME STEP    2, STRESS PERIOD  24
 UBDSV1 SAVING "FLOW LOWER FACE " ON UNIT7012 AT TIME STEP    2, STRESS PERIOD  24
 UBDSV4 SAVING " GHOST-NODE HEAD" ON UNIT7012 AT TIME STEP    2, STRESS PERIOD  24

 HEAD WILL BE SAVED ON UNIT 2212 AT END OF TIME STEP     2, STRESS PERIOD     24
1
  VOLUMETRIC BUDGET FOR ENTIRE MODEL AT END OF TIME STEP    2 IN STRESS PERIOD     24
  ------------------------------------------------------------------------------

     CUMULATIVE VOLUMES      L**3       RATES FOR THIS TIME STEP      L**3/T
     ------------------                 ------------------------

           IN:                                      IN:
           ---                                      ---
             STORAGE =       54595.0078               STORAGE =           0.0000
       CONSTANT HEAD =           0.0000         CONSTANT HEAD =           0.0000
     GHOST-NODE HEAD =     2699685.0000       GHOST-NODE HEAD =        1942.7379

            TOTAL IN =     2754280.0000              TOTAL IN =        1942.7379

          OUT:                                     OUT:
          ----                                     ----
             STORAGE =     1641115.2500               STORAGE =         276.3315
       CONSTANT HEAD =           0.0000         CONSTANT HEAD =           0.0000
     GHOST-NODE HEAD =     1113164.3750       GHOST-NODE HEAD =        1666.3604

           TOTAL OUT =     2754279.5000             TOTAL OUT =        1942.6919

            IN - OUT =           0.5000              IN - OUT =       4.6021E-02

 PERCENT DISCREPANCY =           0.00     PERCENT DISCREPANCY =           0.00






          TIME SUMMARY AT END OF TIME STEP     2 IN STRESS PERIOD     24
                    SECONDS     MINUTES      HOURS       DAYS        YEARS
                    -----------------------------------------------------------
   TIME STEP LENGTH 1.31414E+06  21902.      365.04      15.210     4.16427E-02
 STRESS PERIOD TIME 2.62829E+06  43805.      730.08      30.420     8.32854E-02
         TOTAL TIME 6.30789E+07 1.05132E+06  17522.      730.08      1.9989    
1
1
  FLUX ACROSS PARENT-CHILD INTERFACE AT TIME STEP  2 IN STRESS PERIOD   24
  ------------------------------------------------------------------------
 G-N FLUX        PARENT        CHILD         DIFFERENCE      % DIFFERENCE
  RATE IN:      1.9424E+03    1.9427E+03    -3.0115E-01       -0.0155
 RATE OUT:      1.6666E+03    1.6664E+03     2.4048E-01        0.0144
