
                       OWHM 1.0
    U.S. GEOLOGICAL SURVEY MODULAR FINITE-DIFFERENCE 
         ONE-WATER HYDROLOGIC-FLOW MODEL [OWHM]
              Version 1.0.0   11/05/2014

 INCLUDES:
          MODFLOW-2005 Version 1.11.0  08/08/2013
          FMP          Version 3.0.0   08/01/2014
          SWR          Version 1.03.0  09/24/2013
          SWI          Version 2.0.0   07/22/2013
          LGR          Version 2.0.0   09/19/2013
          NWT          Version 1.0.9   07/01/2014


 LIST FILE: ../../test-out-owhm-lgr/fmp-lgr-lpf/OWHM_EX2_child3.lst
                         UNIT  713

 OPENING OWHM_EX2_child3.lpf
 FILE TYPE:LPF   UNIT  913   STATUS:OLD    
 FORMAT:FORMATTED              ACCESS:SEQUENTIAL          

 OPENING OWHM_EX2_child3.ba6
 FILE TYPE:BAS6   UNIT 1013   STATUS:OLD    
 FORMAT:FORMATTED              ACCESS:SEQUENTIAL          

 OPENING OWHM_EX2_child3.dis
 FILE TYPE:DIS   UNIT 1113   STATUS:OLD    
 FORMAT:FORMATTED              ACCESS:SEQUENTIAL          

 OPENING OWHM_EX2_child3.fmp
 FILE TYPE:FMP   UNIT 1213   STATUS:OLD    
 FORMAT:FORMATTED              ACCESS:SEQUENTIAL          

 OPENING OWHM_EX2_child3.sfr
 FILE TYPE:SFR   UNIT 1413   STATUS:OLD    
 FORMAT:FORMATTED              ACCESS:SEQUENTIAL          

 OPENING OWHM_EX2_child3.oc
 FILE TYPE:OC   UNIT 1913   STATUS:OLD    
 FORMAT:FORMATTED              ACCESS:SEQUENTIAL          
# Solvers                                                                                                                                                                                                                                                                                                                                                                                                                                                                                                                                                                                                                                                                                                                   

 OPENING OWHM_EX2.pcg
 FILE TYPE:PCG   UNIT 1813   STATUS:OLD    
 FORMAT:FORMATTED              ACCESS:SEQUENTIAL          
#                                                                                                                                                                                                                                                                                                                                                                                                                                                                                                                                                                                                                                                                                                                           

 OPENING ../../test-out-owhm-lgr/fmp-lgr-lpf/OWHM_EX2_child3.hed
 FILE TYPE:DATA   UNIT 2213   STATUS:UNKNOWN
 FORMAT:FORMATTED              ACCESS:SEQUENTIAL          
#                                                                                                                                                                                                                                                                                                                                                                                                                                                                                                                                                                                                                                                                                                                           

 OPENING ../../test-out-owhm-lgr/fmp-lgr-lpf/CBC_child3.OUT
 FILE TYPE:DATA(BINARY)   UNIT 7013   STATUS:UNKNOWN
 FORMAT:UNFORMATTED            ACCESS:STREAM              

 OPENING ../../test-out-owhm-lgr/fmp-lgr-lpf/OWHM_EX2_child_bfh3.hed
 FILE TYPE:DATA   UNIT 5913   STATUS:UNKNOWN
 FORMAT:FORMATTED              ACCESS:SEQUENTIAL          

 OPENING ../../test-out-owhm-lgr/fmp-lgr-lpf/OWHM_EX2_child_bfh3.flw
 FILE TYPE:DATA   UNIT 6913   STATUS:UNKNOWN
 FORMAT:FORMATTED              ACCESS:SEQUENTIAL          

 OPENING ../../test-out-owhm-lgr/fmp-lgr-lpf/OWHM_EX2_child3_SFR_OUTPUT.txt
 FILE TYPE:DATA   UNIT   77   STATUS:UNKNOWN
 FORMAT:FORMATTED              ACCESS:SEQUENTIAL          

 BAS -- BASIC PACKAGE, VERSION 7, 5/2/2005 INPUT READ FROM UNIT 1013
 
 MODFLOW was compiled using mixed precision
 Precision of REAL variables:           6
 Precision of DOUBLE PRECISION variables:          15

 DISCRETIZATION INPUT DATA READ FROM UNIT 1113
 # generic model 1 transient discretization file

*** DIS COORDINATE SYSTEM NOT SEPECIFIED ***
DEFAULT VALUES APPLIED ARE 0° ROTATION
WITH THE ORIGIN (0,0) LOCATED AT THE MODEL'S LOWER LEFT CORNER


    4 LAYERS        15 ROWS         6 COLUMNS
     24 STRESS PERIOD(S) IN SIMULATION
 MODEL TIME UNIT IS DAYS
 MODEL LENGTH UNIT IS METERS
  Confining bed flag for each layer:
   1   1   1   0

                     DELR =   166.667    

                     DELC =   166.667    

 OPENING FILE ON UNIT   99:
 ./DATA_FMP/GSE_child3.in                                                                                                                                                                                                                                                                                                                                                                                                                                                                                                                                                                                                                                                                                                    



           TOP ELEVATION OF LAYER 1
 READING ON UNIT   99 WITH FORMAT: (FREE)              

   MODEL LAYER BOTTOM EL. =   205.000     FOR LAYER   1

 BOT. EL. OF QUASI-3D BED =   200.000     FOR LAYER   1

   MODEL LAYER BOTTOM EL. =   140.000     FOR LAYER   2

 BOT. EL. OF QUASI-3D BED =   125.000     FOR LAYER   2

   MODEL LAYER BOTTOM EL. =   65.0000     FOR LAYER   3

 BOT. EL. OF QUASI-3D BED =   60.0000     FOR LAYER   3

   MODEL LAYER BOTTOM EL. =   0.00000     FOR LAYER   4


 STRESS PERIOD     LENGTH       TIME STEPS     MULTIPLIER FOR DELT    SS FLAG
 ----------------------------------------------------------------------------
        1         30.42000          2                    1.000         TR
        2         30.42000          2                    1.000         TR
        3         30.42000          2                    1.000         TR
        4         30.42000          2                    1.000         TR
        5         30.42000          2                    1.000         TR
        6         30.42000          2                    1.000         TR
        7         30.42000          2                    1.000         TR
        8         30.42000          2                    1.000         TR
        9         30.42000          2                    1.000         TR
       10         30.42000          2                    1.000         TR
       11         30.42000          2                    1.000         TR
       12         30.42000          2                    1.000         TR
       13         30.42000          2                    1.000         TR
       14         30.42000          2                    1.000         TR
       15         30.42000          2                    1.000         TR
       16         30.42000          2                    1.000         TR
       17         30.42000          2                    1.000         TR
       18         30.42000          2                    1.000         TR
       19         30.42000          2                    1.000         TR
       20         30.42000          2                    1.000         TR
       21         30.42000          2                    1.000         TR
       22         30.42000          2                    1.000         TR
       23         30.42000          2                    1.000         TR
       24         30.42000          2                    1.000         TR

 TRANSIENT SIMULATION



 
 # generic model 1                                                               
 THE FREE FORMAT OPTION HAS BEEN SELECTED

 THE MAX STORAGE FOR PROPERTIES DEFINED BY PARAMETERS IS: 
 MAX STORAGE OF PARAMETERS (MXPAR)  IS       2000
 MAX STORAGE OF INSTANCES  (MXINST) IS      50000
 MAX STORAGE OF CLUSTERS   (MXCLST) IS    2000000

 CALCULATE FLOW BETWEEN ADJACENT CONSTANT-HEAD CELLS

 OPENING FILE ON UNIT   99:
 OWHM_EX2_child3.ib                                                                                                                                                                                                                                                                                                                                                                                                                                                                                                                                                                                                                                                                                                          



                     BOUNDARY ARRAY FOR LAYER   1
 READING ON UNIT   99 WITH FORMAT: (FREE)              

 OPENING FILE ON UNIT   99:
 OWHM_EX2_child3.ib                                                                                                                                                                                                                                                                                                                                                                                                                                                                                                                                                                                                                                                                                                          



                     BOUNDARY ARRAY FOR LAYER   2
 READING ON UNIT   99 WITH FORMAT: (FREE)              

 OPENING FILE ON UNIT   99:
 OWHM_EX2_child3.ib                                                                                                                                                                                                                                                                                                                                                                                                                                                                                                                                                                                                                                                                                                          



                     BOUNDARY ARRAY FOR LAYER   3
 READING ON UNIT   99 WITH FORMAT: (FREE)              

 OPENING FILE ON UNIT   99:
 OWHM_EX2_child3.ib                                                                                                                                                                                                                                                                                                                                                                                                                                                                                                                                                                                                                                                                                                          



                     BOUNDARY ARRAY FOR LAYER   4
 READING ON UNIT   99 WITH FORMAT: (FREE)              

CHECKING FOR VALID MODEL DIMENIONS FOR DELR, DELC, AND THICKNESS


 AQUIFER HEAD WILL BE SET TO  -333.00     AT ALL NO-FLOW NODES (IBOUND=0).

             INITIAL HEAD =   0.00000     FOR LAYER   1

             INITIAL HEAD =   0.00000     FOR LAYER   2

             INITIAL HEAD =   0.00000     FOR LAYER   3

             INITIAL HEAD =   0.00000     FOR LAYER   4

 OUTPUT CONTROL IS SPECIFIED ONLY AT TIME STEPS FOR WHICH OUTPUT IS DESIRED
 HEADS WILL BE SAVED WITH FORMAT: (100F8.2)           
 SAVED HEADS WILL BE LABELED
 COMPACT CELL-BY-CELL BUDGET FILES WILL BE WRITTEN
 HEAD PRINT FORMAT CODE IS  -3    DRAWDOWN PRINT FORMAT CODE IS   0
 HEADS WILL BE SAVED ON UNIT 2213    DRAWDOWNS WILL BE SAVED ON UNIT    0  WATER BUDGETs WILL BE SAVED ON UNIT 

 LGR2 -- LOCAL GRID REFINEMENT, VERSION 2.0, 06/25/2013
        INPUT READ FOR MODEL  4 DEFINED BY NAME FILE OWHM_EX2_child3.nam

 LOCAL GRID REFINEMENT IS ACTIVE FOR CHILD ONLY
               STARTING HEADS FROM PARENT WILL BE USED: ISHFLG =   1
               VALUE IN IBOUND INDICATING BOUNDARY INTERFACE = 4913
               BOUNDARY HEADS WILL BE SAVED ON UNIT  5913
               BOUNDARY FLUXES WILL BE SAVED ON UNIT  6913
               MAX NUMBER OF LGR ITERATIONS = 30
               LGR ITERATION RESULTS WRITTEN TO SCREEN: IOUTLGR =  -1

               WEIGHTING FACTORS FOR RELAXATION
               RELAXH(HEAD) RELAXF(FLUX)
               -------------------------
               0.500E+00      0.500E+00

               CLOSURE CRITERIA FOR LGR ITERATIONS
               HCLOSELGR       FCLOSELGR
               -------------------------
               5.000E-04      1.000E+00

               STARTING LAYER, ROW, COLUMN=   1,   6,  10
               ENDING LAYER, ROW, COLUMN=     4,  10,  11
               NCPP: NUMBER OF CHILD CELLS PER WIDTH OF PARENT CELL= 3
               NCPPL: NUMBER OF CHILD LAYERS IN LAYER  1 OF PARENT = 1
               NCPPL: NUMBER OF CHILD LAYERS IN LAYER  2 OF PARENT = 1
               NCPPL: NUMBER OF CHILD LAYERS IN LAYER  3 OF PARENT = 1
               NCPPL: NUMBER OF CHILD LAYERS IN LAYER  4 OF PARENT = 1

 LPF -- LAYER-PROPERTY FLOW PACKAGE, VERSION 7, 5/2/2005
         INPUT READ FROM UNIT  913
 CELL-BY-CELL FLOWS WILL BE SAVED ON UNIT 7013
 HEAD AT CELLS THAT CONVERT TO DRY=   2223.0    
 No named parameters

   LAYER FLAGS:
 LAYER       LAYTYP        LAYAVG         CHANI        LAYVKA        LAYWET
 ---------------------------------------------------------------------------
    1             1             0     1.000E+00             1             0
    2             0             0     1.000E+00             1             0
    3             0             0     1.000E+00             1             0
    4             0             0     1.000E+00             1             0

   INTERPRETATION OF LAYER FLAGS:
                        INTERBLOCK     HORIZONTAL    DATA IN
         LAYER TYPE   TRANSMISSIVITY   ANISOTROPY   ARRAY VKA   WETTABILITY
 LAYER      (LAYTYP)      (LAYAVG)       (CHANI)      (LAYVKA)      (LAYWET)
 ---------------------------------------------------------------------------
    1   CONVERTIBLE      HARMONIC     1.000E+00    ANISOTROPY  NON-WETTABLE
    2      CONFINED      HARMONIC     1.000E+00    ANISOTROPY  NON-WETTABLE
    3      CONFINED      HARMONIC     1.000E+00    ANISOTROPY  NON-WETTABLE
    4      CONFINED      HARMONIC     1.000E+00    ANISOTROPY  NON-WETTABLE

 WETTING CAPABILITY IS NOT ACTIVE IN ANY LAYER

    HYD. COND. ALONG ROWS =   10.0000     FOR LAYER   1

  HORIZ. TO VERTICAL ANI. =   1.00000     FOR LAYER   1

         SPECIFIC STORAGE =  1.000000E-05 FOR LAYER   1

           SPECIFIC YIELD =  2.000000E-02 FOR LAYER   1

 QUASI3D VERT. HYD. COND. =  2.000000E-03 FOR LAYER   1

    HYD. COND. ALONG ROWS =   1.50000     FOR LAYER   2

  HORIZ. TO VERTICAL ANI. =   1.00000     FOR LAYER   2

         SPECIFIC STORAGE =  1.000000E-05 FOR LAYER   2

 QUASI3D VERT. HYD. COND. =  1.000000E-03 FOR LAYER   2

    HYD. COND. ALONG ROWS =   1.00000     FOR LAYER   3

  HORIZ. TO VERTICAL ANI. =   1.00000     FOR LAYER   3

         SPECIFIC STORAGE =  1.000000E-05 FOR LAYER   3

 QUASI3D VERT. HYD. COND. =  5.000000E-04 FOR LAYER   3

    HYD. COND. ALONG ROWS =  0.150000     FOR LAYER   4

  HORIZ. TO VERTICAL ANI. =   1.00000     FOR LAYER   4

         SPECIFIC STORAGE =  1.000000E-05 FOR LAYER   4

 SFR7 -- STREAMFLOW ROUTING PACKAGE, VERSION 1.0.5, 2012-04-05
         INPUT READ FROM UNIT 1413
 # Project 1 New Stream Aquifer Package
 No named parameters
 Segment information will not be 
 read by reach
 No named parameters

 NO TABFILE SPECIFIED FOR PACKAGE SFR 

 No specifed inflow files
 AUXILIARY STREAM FLOW ROUTING VARIABLE: LGRGRID         
 AUXILIARY STREAM FLOW ROUTING VARIABLE: LGRSEG          


 NUMBER OF STREAM REACHES IS    6

 NUMBER OF STREAM SEGMENTS IS    1

 NUMBER OF STREAM PARAMETERS IS    0

 NUMBER OF STREAM SEGMENTS DEFINED USING PARAMETERS IS              0

 MAXIMUM ERROR FOR STREAM LEAKAGE RATES IS  1.00E-04

 CONSTANT FOR MANNINGS EQUATION IS  8.6400E+04



 FLOW TO AND FROM GROUND WATER FOR EACH STREAM REACH WILL BE SAVED ON UNIT 7013
 STREAM OUTPUT WILL BE WRITTEN TO FILE ON UNIT   77


   STREAM NETWORK DESCRIPTION: 

   LAYER    ROW    COL   SEGMENT   REACH     LENGTH
                          NUMBER   NUMBER    IN CELL        
   --------------------------------------------------
      1     14      1       1        1    1.6667E+02
      1     14      2       1        2    1.6667E+02
      1     14      3       1        3    1.6667E+02
      1     14      4       1        4    1.6667E+02
      1     14      5       1        5    1.6667E+02
      1     14      6       1        6    1.6667E+02




 PCG -- CONJUGATE-GRADIENT SOLUTION PACKAGE, VERSION 7, 5/2/2005
 MAXIMUM OF    100 CALLS OF SOLUTION ROUTINE
 MAXIMUM OF    100 INTERNAL ITERATIONS PER CALL TO SOLUTION ROUTINE
 MATRIX PRECONDITIONING TYPE :    1



                                    SOLUTION BY THE CONJUGATE-GRADIENT METHOD
                                   -------------------------------------------
                    MAXIMUM NUMBER OF CALLS TO PCG ROUTINE =      100
                        MAXIMUM ITERATIONS PER CALL TO PCG =      100
                               MATRIX PRECONDITIONING TYPE =        1
        RELAXATION FACTOR (ONLY USED WITH PRECOND. TYPE 1) =    0.10000E+01
 PARAMETER OF POLYNOMIAL PRECOND. = 2 (2) OR IS CALCULATED :        2
                         HEAD CHANGE CRITERION FOR CLOSURE =    0.10000E-03
                     RESIDUAL CHANGE CRITERION FOR CLOSURE =    0.10000E+00
            PCG HEAD AND RESIDUAL CHANGE PRINTOUT INTERVAL =        1
     PRINTING FROM SOLVER IS LIMITED(1) OR SUPPRESSED (>1) =        1
                            STEADY-STATE DAMPING PARAMETER =    0.10000E+01
                               TRANSIENT DAMPING PARAMETER =    0.10000E+01


 FMP3 -- FARM PROCESS, VERSION 3.0, 06/15/1998 03:36:54
 INPUT READ FROM UNIT
 # FMP2 Example Model -- ZERO SCENARIO / EQUAL APPROPRATION
               1 Named Parameters     
               0 Child Model Well List entries
              15 Parent Model Well List entries used at Maximum for Child Model Wells

 DIMENSIONS:
   MAXIMUM OF     30 FARM WELLS
   MAXIMUM OF        8 FARMS
   TOTAL OF        3 SOIL-TYPES
   TOTAL OF        6 CROP-TYPES

 WHEN TO READ SETTINGS:
   ROOT ZONE DEPTHS ............................  SPECIFIED FOR EACH STRESS PERIOD
                                                  IN PARENT MODEL AND USED IN CHILD MODEL WHERE NEEDED

   CROP COEFFICIENTS ...........................  AND
   REFERENCE EVAPOTRANSPIRATION FLUX ...........  SPECIFIED FOR EACH STRESS PERIOD
                                                  IN PARENT MODEL AND USED IN CHILD MODEL WHERE NEEDED

   PRECIPITATION FLUX ..........................  SPECIFIED FOR EACH STRESS PERIOD
                                                  IN PARENT MODEL AND USED IN CHILD MODEL WHERE NEEDED

   FRACTIONS OF TRANS. & EVAP. OF CONSUMPTIVE USE SPECIFIED FOR EACH STRESS PERIOD
                                                  IN PARENT MODEL AND USED IN CHILD MODEL WHERE NEEDED

   FRACTIONS OF IN-EFFICIENT LOSSES TO SW-RUNOFF  SPECIFIED FOR EACH STRESS PERIOD
                                                  IN PARENT MODEL AND USED IN CHILD MODEL WHERE NEEDED

   ON-FARM EFFICIENCIES ........................  SPECIFIED FOR EACH STRESS PERIOD
                                                  IN PARENT MODEL AND USED IN CHILD MODEL WHERE NEEDED

   WATER-BALANCE SUBREGIONS (FARMS).............  SPECIFIED FOR THE ENTIRE SIMULATION

 WATER POLICY SETTINGS:
   EFFICIENCY BEHAVIOR: CONSERVATIVE BEHAVIOR: CONSTANT EFFICIENCY OVER A TIME STEP
                        EFFICIENCY DOES NOT VARY WITH CHANGING GROUNDWATER LEVEL, BUT
                        DELIVERY MAY VARY WITH CHANGING GROUNDWATER LEVEL
                        EFF. RESET TO SPEC. EFF. AT BEG. OF EACH TIME STEP
   NO DEFICIENCY SCENARIO APPLIED (ZERO SCENARIO)
     ASSUMPTION FOR DEFICIENCY CASE: SUPPLY = DEMAND, I.E.
     SUPPLY SUFFICIENTLY SUPPLEMENTED FROM OUTSIDE MODELING DOMAIN
   NO NON-IRRIGATION-SEASON HAS BEEN SELECTED
   NO GROUNDWATER ALLOTMENTS (Volumetric Rate) HAVE BEEN SELECTED -- Maximum Groundwater Delivery limited by Total Capacity of all Farm wells per Farm per Stress Period

 SURFACE-WATER SETTINGS (SUPPLY / RETURNFLOW / RIGHTS:
   FARM DELIVERY REQUIREMENT SUPPLIED BY:
     NON-ROUTED SURFACE-WATER DELIVERIES (FIRST PRIORITY).
     MAXIMUM NUMBER OF NON-ROUTED DELIVERY TYPES =    1
   NO ROUTED SURFACE-WATER DELIVERY EXISTS
   NO SEMI-ROUTED RUNOFF-RETURNFLOW EXISTS
   FARM RUNOFF RETURNED TO STREAM-NETWORK BY:
     FULLY ROUTED SURFACE-WATER RETURNFLOW FROM ALL FARMS
     TO ALL REACHES OF ANY STREAM SEGMENT LOCATED WITHIN EACH FARM

 PRINT SETTINGS:
   FARM WELL FLOW RATES:
     A LIST (FARM-WELL ID, FARM ID, LAY, ROW, COL, RATE) IS SAVED 
     ON ASCII FILE "FWELLS.OUT" FOR ALL TIME STEPS
   FARM NET RECHARGE FLOW RATES:
     A 2D INTEGER-ARRAY OF EACH CELLS UPPERMOST ACTIVE LAYER, AND
     A 2D REAL-ARRAY OF EACH CELLS NET RECHARGE RATE 
     WILL BE SAVED AS BINARY FILE ON UNIT 7013 FOR TIME STEPS, FOR WHICH IN OUTPUT CONTOL
     "SAVE BUDGET" IS SPECIFIED (USING WORDS), OR ICBCFL IS NOT 0 (USING NUMERIC CODES)
   FARM DEMAND & SUPPLY FLOW RATES:
     A LIST OF INITIAL DEMAND & SUPPLY FLOW RATES, AND OF
     FINAL DEMAND AND SUPPLY FLOW RATES AFTER THE APPLICATION OF A DEFICIENCY SCENARIO
     WILL BE SAVED ON ASCII-FILE "FDS.OUT" FOR ALL TIME STEPS.  LIST =
     (PER,TSTP,TIME,FID,OFE,
      TFDR-INI,NR-SWD-INI,R-SWD-INI,QREQ,TFDR-FIN,NR-SWD-FIN,R-SWD-FIN,QREQ,Q,DEF-FLAG)
     (<-- BEFORE DEFICIENCY SCENARIO --> <--       AFTER DEFICIENCY SCENARIO       -->)
   DETAILED FARM BUDGET:
     A LIST OF VOLUMETRIC FLOW RATES FOR ANY TIME STEP [L^3/T], AND OF CUMULATIVE VOLUMES [L^3] 
     WILL BE SAVED ON ASCII-FILE "FB_DETAILS.OUT" FOR ALL TIME STEPS.
      LIST = (PER,TSTP,TIME,FID;
      RATES INTO FARM: Q-p-in, Q-nrd-in, Q-srd-in, Q-rd-in, Q-wells-in, Q-egw-in, Q-tgw-in, Q-ext-in, Q-tot-in,
      RATES OUT OF FARM: Q-ei-out, Q-ep-out, Q-egw-out, Q-ti-out, Q-tp-out, Q-tgw-out Q-run-out, Q-dp-out, Q-nrd-out, Q-srd-out, Q-rd-out, Q-wells-out, Q-tot-out,
      RATE BUDGET ERROR: Q-in-minus-out, Q-Discrepancy [%];
      CUMULATIVE VOLUMES INTO FARM: V-p-in, V-nrd-in, V-srd-in, V-rd-in, V-wells-in, V-egw-in, V-tgw-in, V-ext-in, V-tot-in,
      CUMULATIVE VOLUMES OUT OF FARM: V-ei-out, V-ep-out, V-egw-out, V-ti-out, V-tp-out, V-tgw-out V-run-out, V-dp-out, V-nrd-out, V-srd-out, V-rd-out, V-wells-out, V-tot-out,
      VOLUMETRIC BUDGET ERROR: Q-in-minus-out, Q-Discrepancy [%])
   ROUTING INFOMATION:
     WRITTEN TO ASCII FILE "ROUT.OUT" FOR FIRST STRESS PERIOD ONLY
 
 AUXILIARY FARM WELL PARAMETER: QMAXRESET       
 AUXILIARY FARM WELL PARAMETER: LGRGRID         


     1 Farm Well parameters

 PARAMETER NAME:WELLS1       TYPE:QMAX
 Parameter value from package file is:    1000.0    
   NUMBER OF ENTRIES:      0
 
 WELL NO. LAYER    ROW    COL  F-WELL ID    FARM ID      QMAXfac         QMAXRESET       LGRGRID         
 --------------------------------------------------------------------------------------------------------
       2      1      2      2          5          2      2.0000E+00     0    0
       3      1      5      5          6          2      1.0000E+00     0    0
1
                            STRESS PERIOD NO.      1, LENGTH =   30.42000    
                            -----------------------------------------------

                              NUMBER OF TIME STEPS =     2

                               MULTIPLIER FOR DELT =     1.000

                            INITIAL TIME STEP SIZE =   15.21000    

PARAMETERS HAVE BEEN USED IN PACKAGES
THE CURRENT STORAGE FOR PARAMETERS IS: 
# PARAMETER=         1 WITH MAX STORAGE (MXPAR)  OF      2000
# INSTANCES=         0 WITH MAX STORAGE (MXINST) OF     50000
# CLUSTERS =         0 WITH MAX STORAGE (MXCLST) OF   2000000
YOU CAN INCREASE/DECREASE STORAGE WITH BAS OPTION:
MAXPARAM  MXPAR  MXCLST MXINST



 CLASSIFICATION & COUNT OF STREAM SEGMENTS BASED ON SOURCE OF INFLOW:

                HEADWATER     DIVERSION     RECEIVES TRIBUTARY FLOW
                ---------     ---------     -----------------------
                     1              0               0




 WELL NO. LAYER    ROW    COL  F-WELL ID    FARM ID         QMAX         QMAXRESET       LGRGRID         
 --------------------------------------------------------------------------------------------------------
       1      1      2      2          5          2      2.0000E+00     0    0
       2      1      5      5          6          2      1.0000E+00     0    0

 Parameter:  WELLS1
 WELL NO. LAYER    ROW    COL  F-WELL ID    FARM ID         QMAX         QMAXRESET       LGRGRID         
 --------------------------------------------------------------------------------------------------------
       3      1      2      2          5          2      2.0000E+03              0              0
       4      1      5      5          6          2      1.0000E+03              0              0

 NUMBER OF ACTIVE FARM WELLS:        4

 FARM-ID  NUMBER OF WELLS PER FARM  TOTAL MAX.CAPACITY PER FARM
       1                         0                       0.0000
       2                         4                    3003.0000
       3                         0                       0.0000
       4                         0                       0.0000
       5                         0                       0.0000
       6                         0                       0.0000
       7                         0                       0.0000
       8                         0                       0.0000

Transpiratory and Evaporative Fractions of Crop Consumptive Use
    % Transpiration % Evap. for Precip. % Evap. for Irrig.
    3          0.957          0.043          0.043
    5          0.777          0.223          0.000

FRACTIONS OF IN-EFFICIENT LOSSES TO SW-RUNOFF FROM 
     PRECIPITATION:  IRRIGATION:
    3          0.600          0.500
    5          0.840          0.000
 
 SOLVING FOR HEAD 


     3 CALLS TO PCG ROUTINE FOR TIME STEP   1 IN STRESS PERIOD    1
    16 TOTAL ITERATIONS


     3 CALLS TO PCG ROUTINE FOR TIME STEP   1 IN STRESS PERIOD    1
    10 TOTAL ITERATIONS


     2 CALLS TO PCG ROUTINE FOR TIME STEP   1 IN STRESS PERIOD    1
     7 TOTAL ITERATIONS


     2 CALLS TO PCG ROUTINE FOR TIME STEP   1 IN STRESS PERIOD    1
     6 TOTAL ITERATIONS


     2 CALLS TO PCG ROUTINE FOR TIME STEP   1 IN STRESS PERIOD    1
     6 TOTAL ITERATIONS


     2 CALLS TO PCG ROUTINE FOR TIME STEP   1 IN STRESS PERIOD    1
     6 TOTAL ITERATIONS


     2 CALLS TO PCG ROUTINE FOR TIME STEP   1 IN STRESS PERIOD    1
     5 TOTAL ITERATIONS


     2 CALLS TO PCG ROUTINE FOR TIME STEP   1 IN STRESS PERIOD    1
     4 TOTAL ITERATIONS


     2 CALLS TO PCG ROUTINE FOR TIME STEP   1 IN STRESS PERIOD    1
     4 TOTAL ITERATIONS


     2 CALLS TO PCG ROUTINE FOR TIME STEP   1 IN STRESS PERIOD    1
     3 TOTAL ITERATIONS


     2 CALLS TO PCG ROUTINE FOR TIME STEP   1 IN STRESS PERIOD    1
     3 TOTAL ITERATIONS

 OUTPUT CONTROL FOR STRESS PERIOD      1   TIME STEP     1
    SAVE HEAD FOR ALL LAYERS
    SAVE BUDGET
 UBDSV1 SAVING "         STORAGE" ON UNIT7013 AT TIME STEP    1, STRESS PERIOD   1
 UBDSV2 SAVING "   CONSTANT HEAD" ON UNIT7013 AT TIME STEP    1, STRESS PERIOD   1
 UBDSV1 SAVING "FLOW RIGHT FACE " ON UNIT7013 AT TIME STEP    1, STRESS PERIOD   1
 UBDSV1 SAVING "FLOW FRONT FACE " ON UNIT7013 AT TIME STEP    1, STRESS PERIOD   1
 UBDSV1 SAVING "FLOW LOWER FACE " ON UNIT7013 AT TIME STEP    1, STRESS PERIOD   1
 UBDSV4 SAVING "  STREAM LEAKAGE" ON UNIT7013 AT TIME STEP    1, STRESS PERIOD   1



 UBDSV3 SAVING "FARM  NET  RECH." ON UNIT7013 AT TIME STEP    1, STRESS PERIOD   1
 UBDSV4 SAVING " GHOST-NODE HEAD" ON UNIT7013 AT TIME STEP    1, STRESS PERIOD   1

 HEAD WILL BE SAVED ON UNIT 2213 AT END OF TIME STEP     1, STRESS PERIOD      1
1
  FLUX ACROSS PARENT-CHILD INTERFACE AT TIME STEP  1 IN STRESS PERIOD    1
  ------------------------------------------------------------------------
 G-N FLUX        PARENT        CHILD         DIFFERENCE      % DIFFERENCE
  RATE IN:      3.0156E+03    3.0154E+03     2.0703E-01        0.0069
 RATE OUT:      3.5928E+03    3.5928E+03     2.8809E-02        0.0008
 
 SOLVING FOR HEAD 
     3 CALLS TO PCG ROUTINE FOR TIME STEP   2 IN STRESS PERIOD    1
    12 TOTAL ITERATIONS
     2 CALLS TO PCG ROUTINE FOR TIME STEP   2 IN STRESS PERIOD    1
     7 TOTAL ITERATIONS
     2 CALLS TO PCG ROUTINE FOR TIME STEP   2 IN STRESS PERIOD    1
     7 TOTAL ITERATIONS
     2 CALLS TO PCG ROUTINE FOR TIME STEP   2 IN STRESS PERIOD    1
     6 TOTAL ITERATIONS
     2 CALLS TO PCG ROUTINE FOR TIME STEP   2 IN STRESS PERIOD    1
     6 TOTAL ITERATIONS
     2 CALLS TO PCG ROUTINE FOR TIME STEP   2 IN STRESS PERIOD    1
     5 TOTAL ITERATIONS
     2 CALLS TO PCG ROUTINE FOR TIME STEP   2 IN STRESS PERIOD    1
     5 TOTAL ITERATIONS
     2 CALLS TO PCG ROUTINE FOR TIME STEP   2 IN STRESS PERIOD    1
     4 TOTAL ITERATIONS
     2 CALLS TO PCG ROUTINE FOR TIME STEP   2 IN STRESS PERIOD    1
     4 TOTAL ITERATIONS
     2 CALLS TO PCG ROUTINE FOR TIME STEP   2 IN STRESS PERIOD    1
     3 TOTAL ITERATIONS

 OUTPUT CONTROL FOR STRESS PERIOD      1   TIME STEP     2
    SAVE BUDGET
 UBDSV1 SAVING "         STORAGE" ON UNIT7013 AT TIME STEP    2, STRESS PERIOD   1
 UBDSV2 SAVING "   CONSTANT HEAD" ON UNIT7013 AT TIME STEP    2, STRESS PERIOD   1
 UBDSV1 SAVING "FLOW RIGHT FACE " ON UNIT7013 AT TIME STEP    2, STRESS PERIOD   1
 UBDSV1 SAVING "FLOW FRONT FACE " ON UNIT7013 AT TIME STEP    2, STRESS PERIOD   1
 UBDSV1 SAVING "FLOW LOWER FACE " ON UNIT7013 AT TIME STEP    2, STRESS PERIOD   1
 UBDSV4 SAVING "  STREAM LEAKAGE" ON UNIT7013 AT TIME STEP    2, STRESS PERIOD   1



 UBDSV3 SAVING "FARM  NET  RECH." ON UNIT7013 AT TIME STEP    2, STRESS PERIOD   1
 UBDSV4 SAVING " GHOST-NODE HEAD" ON UNIT7013 AT TIME STEP    2, STRESS PERIOD   1
1
  VOLUMETRIC BUDGET FOR ENTIRE MODEL AT END OF TIME STEP    2 IN STRESS PERIOD      1
  ------------------------------------------------------------------------------

     CUMULATIVE VOLUMES      L**3       RATES FOR THIS TIME STEP      L**3/T
     ------------------                 ------------------------

           IN:                                      IN:
           ---                                      ---
             STORAGE =       17965.3125               STORAGE =         234.2555
       CONSTANT HEAD =           0.0000         CONSTANT HEAD =           0.0000
      STREAM LEAKAGE =           0.0000        STREAM LEAKAGE =           0.0000
          FARM WELLS =           0.0000            FARM WELLS =           0.0000
    FARM  NET  RECH. =       21396.4219      FARM  NET  RECH. =         716.5218
     GHOST-NODE HEAD =       97246.7188       GHOST-NODE HEAD =        3378.1833

            TOTAL IN =      136608.4531              TOTAL IN =        4328.9609

          OUT:                                     OUT:
          ----                                     ----
             STORAGE =        2246.5500               STORAGE =           9.5070
       CONSTANT HEAD =           0.0000         CONSTANT HEAD =           0.0000
      STREAM LEAKAGE =       28201.4648        STREAM LEAKAGE =         932.5626
          FARM WELLS =           0.0000            FARM WELLS =           0.0000
    FARM  NET  RECH. =           0.0000      FARM  NET  RECH. =           0.0000
     GHOST-NODE HEAD =      106161.2031       GHOST-NODE HEAD =        3386.9224

           TOTAL OUT =      136609.2188             TOTAL OUT =        4328.9922

            IN - OUT =          -0.7656              IN - OUT =      -3.1250E-02

 PERCENT DISCREPANCY =          -0.00     PERCENT DISCREPANCY =          -0.00






          TIME SUMMARY AT END OF TIME STEP     2 IN STRESS PERIOD      1
                    SECONDS     MINUTES      HOURS       DAYS        YEARS
                    -----------------------------------------------------------
   TIME STEP LENGTH 1.31414E+06  21902.      365.04      15.210     4.16427E-02
 STRESS PERIOD TIME 2.62829E+06  43805.      730.08      30.420     8.32854E-02
         TOTAL TIME 2.62829E+06  43805.      730.08      30.420     8.32854E-02
1
1
  FLUX ACROSS PARENT-CHILD INTERFACE AT TIME STEP  2 IN STRESS PERIOD    1
  ------------------------------------------------------------------------
 G-N FLUX        PARENT        CHILD         DIFFERENCE      % DIFFERENCE
  RATE IN:      3.3787E+03    3.3782E+03     5.4395E-01        0.0161
 RATE OUT:      3.3869E+03    3.3869E+03    -1.2695E-02       -0.0004
1
                            STRESS PERIOD NO.      2, LENGTH =   30.42000    
                            -----------------------------------------------

                              NUMBER OF TIME STEPS =     2

                               MULTIPLIER FOR DELT =     1.000

                            INITIAL TIME STEP SIZE =   15.21000    

 REUSING STREAM SEGMENT DATA FROM LAST STRESS PERIOD
 WELL NO. LAYER    ROW    COL  F-WELL ID    FARM ID         QMAX         QMAXRESET       LGRGRID         
 --------------------------------------------------------------------------------------------------------
       1      1      2      2          5          2      2.0000E+00     0    0
       2      1      5      5          6          2      1.0000E+00     0    0

 Parameter:  WELLS1
 WELL NO. LAYER    ROW    COL  F-WELL ID    FARM ID         QMAX         QMAXRESET       LGRGRID         
 --------------------------------------------------------------------------------------------------------
       3      1      2      2          5          2      2.0000E+03              0              0
       4      1      5      5          6          2      1.0000E+03              0              0

 NUMBER OF ACTIVE FARM WELLS:        4

 FARM-ID  NUMBER OF WELLS PER FARM  TOTAL MAX.CAPACITY PER FARM
       1                         0                       0.0000
       2                         4                    3003.0000
       3                         0                       0.0000
       4                         0                       0.0000
       5                         0                       0.0000
       6                         0                       0.0000
       7                         0                       0.0000
       8                         0                       0.0000

Transpiratory and Evaporative Fractions of Crop Consumptive Use
    % Transpiration % Evap. for Precip. % Evap. for Irrig.
    3          0.845          0.155          0.155
    5          0.783          0.217          0.000

FRACTIONS OF IN-EFFICIENT LOSSES TO SW-RUNOFF FROM 
     PRECIPITATION:  IRRIGATION:
    3          0.600          0.500
    5          0.850          0.000
 
 SOLVING FOR HEAD 


     3 CALLS TO PCG ROUTINE FOR TIME STEP   1 IN STRESS PERIOD    2
    11 TOTAL ITERATIONS


     2 CALLS TO PCG ROUTINE FOR TIME STEP   1 IN STRESS PERIOD    2
     8 TOTAL ITERATIONS


     2 CALLS TO PCG ROUTINE FOR TIME STEP   1 IN STRESS PERIOD    2
     7 TOTAL ITERATIONS


     2 CALLS TO PCG ROUTINE FOR TIME STEP   1 IN STRESS PERIOD    2
     6 TOTAL ITERATIONS


     2 CALLS TO PCG ROUTINE FOR TIME STEP   1 IN STRESS PERIOD    2
     5 TOTAL ITERATIONS


     2 CALLS TO PCG ROUTINE FOR TIME STEP   1 IN STRESS PERIOD    2
     5 TOTAL ITERATIONS


     2 CALLS TO PCG ROUTINE FOR TIME STEP   1 IN STRESS PERIOD    2
     4 TOTAL ITERATIONS


     2 CALLS TO PCG ROUTINE FOR TIME STEP   1 IN STRESS PERIOD    2
     4 TOTAL ITERATIONS


     2 CALLS TO PCG ROUTINE FOR TIME STEP   1 IN STRESS PERIOD    2
     3 TOTAL ITERATIONS


     2 CALLS TO PCG ROUTINE FOR TIME STEP   1 IN STRESS PERIOD    2
     3 TOTAL ITERATIONS

 OUTPUT CONTROL FOR STRESS PERIOD      2   TIME STEP     1
    SAVE BUDGET
 UBDSV1 SAVING "         STORAGE" ON UNIT7013 AT TIME STEP    1, STRESS PERIOD   2
 UBDSV2 SAVING "   CONSTANT HEAD" ON UNIT7013 AT TIME STEP    1, STRESS PERIOD   2
 UBDSV1 SAVING "FLOW RIGHT FACE " ON UNIT7013 AT TIME STEP    1, STRESS PERIOD   2
 UBDSV1 SAVING "FLOW FRONT FACE " ON UNIT7013 AT TIME STEP    1, STRESS PERIOD   2
 UBDSV1 SAVING "FLOW LOWER FACE " ON UNIT7013 AT TIME STEP    1, STRESS PERIOD   2
 UBDSV4 SAVING "  STREAM LEAKAGE" ON UNIT7013 AT TIME STEP    1, STRESS PERIOD   2



 UBDSV3 SAVING "FARM  NET  RECH." ON UNIT7013 AT TIME STEP    1, STRESS PERIOD   2
 UBDSV4 SAVING " GHOST-NODE HEAD" ON UNIT7013 AT TIME STEP    1, STRESS PERIOD   2
1
  FLUX ACROSS PARENT-CHILD INTERFACE AT TIME STEP  1 IN STRESS PERIOD    2
  ------------------------------------------------------------------------
 G-N FLUX        PARENT        CHILD         DIFFERENCE      % DIFFERENCE
  RATE IN:      3.5249E+03    3.5246E+03     3.2715E-01        0.0093
 RATE OUT:      3.4831E+03    3.4825E+03     5.8203E-01        0.0167
 
 SOLVING FOR HEAD 
     3 CALLS TO PCG ROUTINE FOR TIME STEP   2 IN STRESS PERIOD    2
    10 TOTAL ITERATIONS
     2 CALLS TO PCG ROUTINE FOR TIME STEP   2 IN STRESS PERIOD    2
     7 TOTAL ITERATIONS
     2 CALLS TO PCG ROUTINE FOR TIME STEP   2 IN STRESS PERIOD    2
     7 TOTAL ITERATIONS
     2 CALLS TO PCG ROUTINE FOR TIME STEP   2 IN STRESS PERIOD    2
     6 TOTAL ITERATIONS
     2 CALLS TO PCG ROUTINE FOR TIME STEP   2 IN STRESS PERIOD    2
     5 TOTAL ITERATIONS
     2 CALLS TO PCG ROUTINE FOR TIME STEP   2 IN STRESS PERIOD    2
     4 TOTAL ITERATIONS
     2 CALLS TO PCG ROUTINE FOR TIME STEP   2 IN STRESS PERIOD    2
     4 TOTAL ITERATIONS
     2 CALLS TO PCG ROUTINE FOR TIME STEP   2 IN STRESS PERIOD    2
     4 TOTAL ITERATIONS
     2 CALLS TO PCG ROUTINE FOR TIME STEP   2 IN STRESS PERIOD    2
     3 TOTAL ITERATIONS

 OUTPUT CONTROL FOR STRESS PERIOD      2   TIME STEP     2
    SAVE BUDGET
 UBDSV1 SAVING "         STORAGE" ON UNIT7013 AT TIME STEP    2, STRESS PERIOD   2
 UBDSV2 SAVING "   CONSTANT HEAD" ON UNIT7013 AT TIME STEP    2, STRESS PERIOD   2
 UBDSV1 SAVING "FLOW RIGHT FACE " ON UNIT7013 AT TIME STEP    2, STRESS PERIOD   2
 UBDSV1 SAVING "FLOW FRONT FACE " ON UNIT7013 AT TIME STEP    2, STRESS PERIOD   2
 UBDSV1 SAVING "FLOW LOWER FACE " ON UNIT7013 AT TIME STEP    2, STRESS PERIOD   2
 UBDSV4 SAVING "  STREAM LEAKAGE" ON UNIT7013 AT TIME STEP    2, STRESS PERIOD   2



 UBDSV3 SAVING "FARM  NET  RECH." ON UNIT7013 AT TIME STEP    2, STRESS PERIOD   2
 UBDSV4 SAVING " GHOST-NODE HEAD" ON UNIT7013 AT TIME STEP    2, STRESS PERIOD   2
1
  VOLUMETRIC BUDGET FOR ENTIRE MODEL AT END OF TIME STEP    2 IN STRESS PERIOD      2
  ------------------------------------------------------------------------------

     CUMULATIVE VOLUMES      L**3       RATES FOR THIS TIME STEP      L**3/T
     ------------------                 ------------------------

           IN:                                      IN:
           ---                                      ---
             STORAGE =       17980.8965               STORAGE =           0.0000
       CONSTANT HEAD =           0.0000         CONSTANT HEAD =           0.0000
      STREAM LEAKAGE =           0.0000        STREAM LEAKAGE =           0.0000
          FARM WELLS =           0.0000            FARM WELLS =           0.0000
    FARM  NET  RECH. =       55870.3242      FARM  NET  RECH. =        1119.7079
     GHOST-NODE HEAD =      206298.3438       GHOST-NODE HEAD =        3645.1360

            TOTAL IN =      280149.5625              TOTAL IN =        4764.8438

          OUT:                                     OUT:
          ----                                     ----
             STORAGE =        8441.0996               STORAGE =         180.8679
       CONSTANT HEAD =           0.0000         CONSTANT HEAD =           0.0000
      STREAM LEAKAGE =       58716.8047        STREAM LEAKAGE =        1042.7133
          FARM WELLS =           0.0000            FARM WELLS =           0.0000
    FARM  NET  RECH. =           0.0000      FARM  NET  RECH. =           0.0000
     GHOST-NODE HEAD =      212993.4844       GHOST-NODE HEAD =        3541.2996

           TOTAL OUT =      280151.3750             TOTAL OUT =        4764.8809

            IN - OUT =          -1.8125              IN - OUT =      -3.7109E-02

 PERCENT DISCREPANCY =          -0.00     PERCENT DISCREPANCY =          -0.00






          TIME SUMMARY AT END OF TIME STEP     2 IN STRESS PERIOD      2
                    SECONDS     MINUTES      HOURS       DAYS        YEARS
                    -----------------------------------------------------------
   TIME STEP LENGTH 1.31414E+06  21902.      365.04      15.210     4.16427E-02
 STRESS PERIOD TIME 2.62829E+06  43805.      730.08      30.420     8.32854E-02
         TOTAL TIME 5.25658E+06  87610.      1460.2      60.840     0.16657    
1
1
  FLUX ACROSS PARENT-CHILD INTERFACE AT TIME STEP  2 IN STRESS PERIOD    2
  ------------------------------------------------------------------------
 G-N FLUX        PARENT        CHILD         DIFFERENCE      % DIFFERENCE
  RATE IN:      3.6452E+03    3.6451E+03     6.5186E-02        0.0018
 RATE OUT:      3.5420E+03    3.5413E+03     6.5405E-01        0.0185
1
                            STRESS PERIOD NO.      3, LENGTH =   30.42000    
                            -----------------------------------------------

                              NUMBER OF TIME STEPS =     2

                               MULTIPLIER FOR DELT =     1.000

                            INITIAL TIME STEP SIZE =   15.21000    

 REUSING STREAM SEGMENT DATA FROM LAST STRESS PERIOD

 Parameter:  WELLS1
 WELL NO. LAYER    ROW    COL  F-WELL ID    FARM ID         QMAX         QMAXRESET       LGRGRID         
 --------------------------------------------------------------------------------------------------------
       1      1      2      2          5          2      2.0000E+03              0              0
       2      1      5      5          6          2      1.0000E+03              0              0

 NUMBER OF ACTIVE FARM WELLS:        2

 FARM-ID  NUMBER OF WELLS PER FARM  TOTAL MAX.CAPACITY PER FARM
       1                         0                       0.0000
       2                         2                    3000.0000
       3                         0                       0.0000
       4                         0                       0.0000
       5                         0                       0.0000
       6                         0                       0.0000
       7                         0                       0.0000
       8                         0                       0.0000

Transpiratory and Evaporative Fractions of Crop Consumptive Use
    % Transpiration % Evap. for Precip. % Evap. for Irrig.
    3          0.000          1.000          1.000
    5          0.835          0.165          0.000

FRACTIONS OF IN-EFFICIENT LOSSES TO SW-RUNOFF FROM 
     PRECIPITATION:  IRRIGATION:
    3          0.600          0.500
    5          0.500          0.000
 
 SOLVING FOR HEAD 


     3 CALLS TO PCG ROUTINE FOR TIME STEP   1 IN STRESS PERIOD    3
    12 TOTAL ITERATIONS


     3 CALLS TO PCG ROUTINE FOR TIME STEP   1 IN STRESS PERIOD    3
     9 TOTAL ITERATIONS


     3 CALLS TO PCG ROUTINE FOR TIME STEP   1 IN STRESS PERIOD    3
     9 TOTAL ITERATIONS


     2 CALLS TO PCG ROUTINE FOR TIME STEP   1 IN STRESS PERIOD    3
     6 TOTAL ITERATIONS


     2 CALLS TO PCG ROUTINE FOR TIME STEP   1 IN STRESS PERIOD    3
     5 TOTAL ITERATIONS


     2 CALLS TO PCG ROUTINE FOR TIME STEP   1 IN STRESS PERIOD    3
     5 TOTAL ITERATIONS


     2 CALLS TO PCG ROUTINE FOR TIME STEP   1 IN STRESS PERIOD    3
     4 TOTAL ITERATIONS


     2 CALLS TO PCG ROUTINE FOR TIME STEP   1 IN STRESS PERIOD    3
     3 TOTAL ITERATIONS


     2 CALLS TO PCG ROUTINE FOR TIME STEP   1 IN STRESS PERIOD    3
     3 TOTAL ITERATIONS


     2 CALLS TO PCG ROUTINE FOR TIME STEP   1 IN STRESS PERIOD    3
     3 TOTAL ITERATIONS

 OUTPUT CONTROL FOR STRESS PERIOD      3   TIME STEP     1
    SAVE BUDGET
 UBDSV1 SAVING "         STORAGE" ON UNIT7013 AT TIME STEP    1, STRESS PERIOD   3
 UBDSV2 SAVING "   CONSTANT HEAD" ON UNIT7013 AT TIME STEP    1, STRESS PERIOD   3
 UBDSV1 SAVING "FLOW RIGHT FACE " ON UNIT7013 AT TIME STEP    1, STRESS PERIOD   3
 UBDSV1 SAVING "FLOW FRONT FACE " ON UNIT7013 AT TIME STEP    1, STRESS PERIOD   3
 UBDSV1 SAVING "FLOW LOWER FACE " ON UNIT7013 AT TIME STEP    1, STRESS PERIOD   3
 UBDSV4 SAVING "  STREAM LEAKAGE" ON UNIT7013 AT TIME STEP    1, STRESS PERIOD   3



 UBDSV3 SAVING "FARM  NET  RECH." ON UNIT7013 AT TIME STEP    1, STRESS PERIOD   3
 UBDSV4 SAVING " GHOST-NODE HEAD" ON UNIT7013 AT TIME STEP    1, STRESS PERIOD   3
1
  FLUX ACROSS PARENT-CHILD INTERFACE AT TIME STEP  1 IN STRESS PERIOD    3
  ------------------------------------------------------------------------
 G-N FLUX        PARENT        CHILD         DIFFERENCE      % DIFFERENCE
  RATE IN:      3.5446E+03    3.5444E+03     2.1997E-01        0.0062
 RATE OUT:      3.7196E+03    3.7193E+03     2.4902E-01        0.0067
 
 SOLVING FOR HEAD 
     3 CALLS TO PCG ROUTINE FOR TIME STEP   2 IN STRESS PERIOD    3
    13 TOTAL ITERATIONS
     3 CALLS TO PCG ROUTINE FOR TIME STEP   2 IN STRESS PERIOD    3
     9 TOTAL ITERATIONS
     2 CALLS TO PCG ROUTINE FOR TIME STEP   2 IN STRESS PERIOD    3
     7 TOTAL ITERATIONS
     2 CALLS TO PCG ROUTINE FOR TIME STEP   2 IN STRESS PERIOD    3
     6 TOTAL ITERATIONS
     2 CALLS TO PCG ROUTINE FOR TIME STEP   2 IN STRESS PERIOD    3
     5 TOTAL ITERATIONS
     2 CALLS TO PCG ROUTINE FOR TIME STEP   2 IN STRESS PERIOD    3
     3 TOTAL ITERATIONS
     2 CALLS TO PCG ROUTINE FOR TIME STEP   2 IN STRESS PERIOD    3
     3 TOTAL ITERATIONS
     2 CALLS TO PCG ROUTINE FOR TIME STEP   2 IN STRESS PERIOD    3
     3 TOTAL ITERATIONS
     2 CALLS TO PCG ROUTINE FOR TIME STEP   2 IN STRESS PERIOD    3
     3 TOTAL ITERATIONS

 OUTPUT CONTROL FOR STRESS PERIOD      3   TIME STEP     2
    PRINT BUDGET
    SAVE HEAD FOR ALL LAYERS
    SAVE BUDGET
 UBDSV1 SAVING "         STORAGE" ON UNIT7013 AT TIME STEP    2, STRESS PERIOD   3
 UBDSV2 SAVING "   CONSTANT HEAD" ON UNIT7013 AT TIME STEP    2, STRESS PERIOD   3
 UBDSV1 SAVING "FLOW RIGHT FACE " ON UNIT7013 AT TIME STEP    2, STRESS PERIOD   3
 UBDSV1 SAVING "FLOW FRONT FACE " ON UNIT7013 AT TIME STEP    2, STRESS PERIOD   3
 UBDSV1 SAVING "FLOW LOWER FACE " ON UNIT7013 AT TIME STEP    2, STRESS PERIOD   3
 UBDSV4 SAVING "  STREAM LEAKAGE" ON UNIT7013 AT TIME STEP    2, STRESS PERIOD   3



 UBDSV3 SAVING "FARM  NET  RECH." ON UNIT7013 AT TIME STEP    2, STRESS PERIOD   3
 UBDSV4 SAVING " GHOST-NODE HEAD" ON UNIT7013 AT TIME STEP    2, STRESS PERIOD   3

 HEAD WILL BE SAVED ON UNIT 2213 AT END OF TIME STEP     2, STRESS PERIOD      3
1
  VOLUMETRIC BUDGET FOR ENTIRE MODEL AT END OF TIME STEP    2 IN STRESS PERIOD      3
  ------------------------------------------------------------------------------

     CUMULATIVE VOLUMES      L**3       RATES FOR THIS TIME STEP      L**3/T
     ------------------                 ------------------------

           IN:                                      IN:
           ---                                      ---
             STORAGE =       28588.2852               STORAGE =         326.0930
       CONSTANT HEAD =           0.0000         CONSTANT HEAD =           0.0000
      STREAM LEAKAGE =           0.0000        STREAM LEAKAGE =           0.0000
          FARM WELLS =           0.0000            FARM WELLS =           0.0000
    FARM  NET  RECH. =       81219.3125      FARM  NET  RECH. =         833.3000
     GHOST-NODE HEAD =      313162.8750       GHOST-NODE HEAD =        3481.5159

            TOTAL IN =      422970.4688              TOTAL IN =        4640.9092

          OUT:                                     OUT:
          ----                                     ----
             STORAGE =        8441.2637               STORAGE =           0.0000
       CONSTANT HEAD =           0.0000         CONSTANT HEAD =           0.0000
      STREAM LEAKAGE =       84161.8750        STREAM LEAKAGE =         772.2114
          FARM WELLS =           0.0000            FARM WELLS =           0.0000
    FARM  NET  RECH. =        2995.5476      FARM  NET  RECH. =          67.9702
     GHOST-NODE HEAD =      327373.5312       GHOST-NODE HEAD =        3800.7261

           TOTAL OUT =      422972.2188             TOTAL OUT =        4640.9077

            IN - OUT =          -1.7500              IN - OUT =       1.4648E-03

 PERCENT DISCREPANCY =          -0.00     PERCENT DISCREPANCY =           0.00






          TIME SUMMARY AT END OF TIME STEP     2 IN STRESS PERIOD      3
                    SECONDS     MINUTES      HOURS       DAYS        YEARS
                    -----------------------------------------------------------
   TIME STEP LENGTH 1.31414E+06  21902.      365.04      15.210     4.16427E-02
 STRESS PERIOD TIME 2.62829E+06  43805.      730.08      30.420     8.32854E-02
         TOTAL TIME 7.88486E+06 1.31414E+05  2190.2      91.260     0.24986    
1
1
  FLUX ACROSS PARENT-CHILD INTERFACE AT TIME STEP  2 IN STRESS PERIOD    3
  ------------------------------------------------------------------------
 G-N FLUX        PARENT        CHILD         DIFFERENCE      % DIFFERENCE
  RATE IN:      3.4821E+03    3.4815E+03     5.9253E-01        0.0170
 RATE OUT:      3.8003E+03    3.8007E+03    -4.2847E-01       -0.0113
1
                            STRESS PERIOD NO.      4, LENGTH =   30.42000    
                            -----------------------------------------------

                              NUMBER OF TIME STEPS =     2

                               MULTIPLIER FOR DELT =     1.000

                            INITIAL TIME STEP SIZE =   15.21000    

 REUSING STREAM SEGMENT DATA FROM LAST STRESS PERIOD

 Parameter:  WELLS1
 WELL NO. LAYER    ROW    COL  F-WELL ID    FARM ID         QMAX         QMAXRESET       LGRGRID         
 --------------------------------------------------------------------------------------------------------
       1      1      2      2          5          2      2.0000E+03              0              0
       2      1      5      5          6          2      1.0000E+03              0              0

 NUMBER OF ACTIVE FARM WELLS:        2

 FARM-ID  NUMBER OF WELLS PER FARM  TOTAL MAX.CAPACITY PER FARM
       1                         0                       0.0000
       2                         2                    3000.0000
       3                         0                       0.0000
       4                         0                       0.0000
       5                         0                       0.0000
       6                         0                       0.0000
       7                         0                       0.0000
       8                         0                       0.0000

Transpiratory and Evaporative Fractions of Crop Consumptive Use
    % Transpiration % Evap. for Precip. % Evap. for Irrig.
    3          0.000          1.000          1.000
    5          0.887          0.113          0.000

FRACTIONS OF IN-EFFICIENT LOSSES TO SW-RUNOFF FROM 
     PRECIPITATION:  IRRIGATION:
    3          0.600          0.500
    5          0.500          0.000
 
 SOLVING FOR HEAD 


     3 CALLS TO PCG ROUTINE FOR TIME STEP   1 IN STRESS PERIOD    4
    13 TOTAL ITERATIONS


     3 CALLS TO PCG ROUTINE FOR TIME STEP   1 IN STRESS PERIOD    4
    12 TOTAL ITERATIONS


     3 CALLS TO PCG ROUTINE FOR TIME STEP   1 IN STRESS PERIOD    4
    10 TOTAL ITERATIONS


     2 CALLS TO PCG ROUTINE FOR TIME STEP   1 IN STRESS PERIOD    4
     7 TOTAL ITERATIONS


     2 CALLS TO PCG ROUTINE FOR TIME STEP   1 IN STRESS PERIOD    4
     7 TOTAL ITERATIONS


     2 CALLS TO PCG ROUTINE FOR TIME STEP   1 IN STRESS PERIOD    4
     7 TOTAL ITERATIONS


     2 CALLS TO PCG ROUTINE FOR TIME STEP   1 IN STRESS PERIOD    4
     6 TOTAL ITERATIONS


     2 CALLS TO PCG ROUTINE FOR TIME STEP   1 IN STRESS PERIOD    4
     6 TOTAL ITERATIONS


     2 CALLS TO PCG ROUTINE FOR TIME STEP   1 IN STRESS PERIOD    4
     4 TOTAL ITERATIONS


     2 CALLS TO PCG ROUTINE FOR TIME STEP   1 IN STRESS PERIOD    4
     4 TOTAL ITERATIONS


     2 CALLS TO PCG ROUTINE FOR TIME STEP   1 IN STRESS PERIOD    4
     4 TOTAL ITERATIONS


     2 CALLS TO PCG ROUTINE FOR TIME STEP   1 IN STRESS PERIOD    4
     4 TOTAL ITERATIONS


     2 CALLS TO PCG ROUTINE FOR TIME STEP   1 IN STRESS PERIOD    4
     3 TOTAL ITERATIONS


     1 CALLS TO PCG ROUTINE FOR TIME STEP   1 IN STRESS PERIOD    4
     1 TOTAL ITERATIONS

 OUTPUT CONTROL FOR STRESS PERIOD      4   TIME STEP     1
    SAVE BUDGET
 UBDSV1 SAVING "         STORAGE" ON UNIT7013 AT TIME STEP    1, STRESS PERIOD   4
 UBDSV2 SAVING "   CONSTANT HEAD" ON UNIT7013 AT TIME STEP    1, STRESS PERIOD   4
 UBDSV1 SAVING "FLOW RIGHT FACE " ON UNIT7013 AT TIME STEP    1, STRESS PERIOD   4
 UBDSV1 SAVING "FLOW FRONT FACE " ON UNIT7013 AT TIME STEP    1, STRESS PERIOD   4
 UBDSV1 SAVING "FLOW LOWER FACE " ON UNIT7013 AT TIME STEP    1, STRESS PERIOD   4
 UBDSV4 SAVING "  STREAM LEAKAGE" ON UNIT7013 AT TIME STEP    1, STRESS PERIOD   4



 UBDSV3 SAVING "FARM  NET  RECH." ON UNIT7013 AT TIME STEP    1, STRESS PERIOD   4
 UBDSV4 SAVING " GHOST-NODE HEAD" ON UNIT7013 AT TIME STEP    1, STRESS PERIOD   4
1
  FLUX ACROSS PARENT-CHILD INTERFACE AT TIME STEP  1 IN STRESS PERIOD    4
  ------------------------------------------------------------------------
 G-N FLUX        PARENT        CHILD         DIFFERENCE      % DIFFERENCE
  RATE IN:      3.0801E+03    3.0796E+03     4.3774E-01        0.0142
 RATE OUT:      3.6792E+03    3.6787E+03     4.5825E-01        0.0125
 
 SOLVING FOR HEAD 
     3 CALLS TO PCG ROUTINE FOR TIME STEP   2 IN STRESS PERIOD    4
    12 TOTAL ITERATIONS
     3 CALLS TO PCG ROUTINE FOR TIME STEP   2 IN STRESS PERIOD    4
    11 TOTAL ITERATIONS
     2 CALLS TO PCG ROUTINE FOR TIME STEP   2 IN STRESS PERIOD    4
     8 TOTAL ITERATIONS
     2 CALLS TO PCG ROUTINE FOR TIME STEP   2 IN STRESS PERIOD    4
     7 TOTAL ITERATIONS
     2 CALLS TO PCG ROUTINE FOR TIME STEP   2 IN STRESS PERIOD    4
     7 TOTAL ITERATIONS
     2 CALLS TO PCG ROUTINE FOR TIME STEP   2 IN STRESS PERIOD    4
     6 TOTAL ITERATIONS
     2 CALLS TO PCG ROUTINE FOR TIME STEP   2 IN STRESS PERIOD    4
     6 TOTAL ITERATIONS
     2 CALLS TO PCG ROUTINE FOR TIME STEP   2 IN STRESS PERIOD    4
     5 TOTAL ITERATIONS
     2 CALLS TO PCG ROUTINE FOR TIME STEP   2 IN STRESS PERIOD    4
     4 TOTAL ITERATIONS
     2 CALLS TO PCG ROUTINE FOR TIME STEP   2 IN STRESS PERIOD    4
     4 TOTAL ITERATIONS
     2 CALLS TO PCG ROUTINE FOR TIME STEP   2 IN STRESS PERIOD    4
     3 TOTAL ITERATIONS
     2 CALLS TO PCG ROUTINE FOR TIME STEP   2 IN STRESS PERIOD    4
     3 TOTAL ITERATIONS
     1 CALLS TO PCG ROUTINE FOR TIME STEP   2 IN STRESS PERIOD    4
     1 TOTAL ITERATIONS

 OUTPUT CONTROL FOR STRESS PERIOD      4   TIME STEP     2
    SAVE BUDGET
 UBDSV1 SAVING "         STORAGE" ON UNIT7013 AT TIME STEP    2, STRESS PERIOD   4
 UBDSV2 SAVING "   CONSTANT HEAD" ON UNIT7013 AT TIME STEP    2, STRESS PERIOD   4
 UBDSV1 SAVING "FLOW RIGHT FACE " ON UNIT7013 AT TIME STEP    2, STRESS PERIOD   4
 UBDSV1 SAVING "FLOW FRONT FACE " ON UNIT7013 AT TIME STEP    2, STRESS PERIOD   4
 UBDSV1 SAVING "FLOW LOWER FACE " ON UNIT7013 AT TIME STEP    2, STRESS PERIOD   4
 UBDSV4 SAVING "  STREAM LEAKAGE" ON UNIT7013 AT TIME STEP    2, STRESS PERIOD   4



 UBDSV3 SAVING "FARM  NET  RECH." ON UNIT7013 AT TIME STEP    2, STRESS PERIOD   4
 UBDSV4 SAVING " GHOST-NODE HEAD" ON UNIT7013 AT TIME STEP    2, STRESS PERIOD   4
1
  VOLUMETRIC BUDGET FOR ENTIRE MODEL AT END OF TIME STEP    2 IN STRESS PERIOD      4
  ------------------------------------------------------------------------------

     CUMULATIVE VOLUMES      L**3       RATES FOR THIS TIME STEP      L**3/T
     ------------------                 ------------------------

           IN:                                      IN:
           ---                                      ---
             STORAGE =       56677.4258               STORAGE =         898.2695
       CONSTANT HEAD =           0.0000         CONSTANT HEAD =           0.0000
      STREAM LEAKAGE =           0.0000        STREAM LEAKAGE =           0.0000
          FARM WELLS =           0.0000            FARM WELLS =           0.0000
    FARM  NET  RECH. =       86564.1094      FARM  NET  RECH. =         175.7000
     GHOST-NODE HEAD =      401086.9375       GHOST-NODE HEAD =        2701.0288

            TOTAL IN =      544328.5000              TOTAL IN =        3774.9983

          OUT:                                     OUT:
          ----                                     ----
             STORAGE =        8441.2637               STORAGE =           0.0000
       CONSTANT HEAD =           0.0000         CONSTANT HEAD =           0.0000
      STREAM LEAKAGE =       96167.8516        STREAM LEAKAGE =         290.4796
          FARM WELLS =           0.0000            FARM WELLS =           0.0000
    FARM  NET  RECH. =        3491.2295      FARM  NET  RECH. =           6.2886
     GHOST-NODE HEAD =      436230.1250       GHOST-NODE HEAD =        3478.2026

           TOTAL OUT =      544330.5000             TOTAL OUT =        3774.9707

            IN - OUT =          -2.0000              IN - OUT =       2.7588E-02

 PERCENT DISCREPANCY =          -0.00     PERCENT DISCREPANCY =           0.00






          TIME SUMMARY AT END OF TIME STEP     2 IN STRESS PERIOD      4
                    SECONDS     MINUTES      HOURS       DAYS        YEARS
                    -----------------------------------------------------------
   TIME STEP LENGTH 1.31414E+06  21902.      365.04      15.210     4.16427E-02
 STRESS PERIOD TIME 2.62829E+06  43805.      730.08      30.420     8.32854E-02
         TOTAL TIME 1.05132E+07 1.75219E+05  2920.3      121.68     0.33314    
1
1
  FLUX ACROSS PARENT-CHILD INTERFACE AT TIME STEP  2 IN STRESS PERIOD    4
  ------------------------------------------------------------------------
 G-N FLUX        PARENT        CHILD         DIFFERENCE      % DIFFERENCE
  RATE IN:      2.7009E+03    2.7010E+03    -1.1377E-01       -0.0042
 RATE OUT:      3.4787E+03    3.4782E+03     5.0366E-01        0.0145
1
                            STRESS PERIOD NO.      5, LENGTH =   30.42000    
                            -----------------------------------------------

                              NUMBER OF TIME STEPS =     2

                               MULTIPLIER FOR DELT =     1.000

                            INITIAL TIME STEP SIZE =   15.21000    

 REUSING STREAM SEGMENT DATA FROM LAST STRESS PERIOD

 Parameter:  WELLS1
 WELL NO. LAYER    ROW    COL  F-WELL ID    FARM ID         QMAX         QMAXRESET       LGRGRID         
 --------------------------------------------------------------------------------------------------------
       1      1      2      2          5          2      2.0000E+03              0              0
       2      1      5      5          6          2      1.0000E+03              0              0

 NUMBER OF ACTIVE FARM WELLS:        2

 FARM-ID  NUMBER OF WELLS PER FARM  TOTAL MAX.CAPACITY PER FARM
       1                         0                       0.0000
       2                         2                    3000.0000
       3                         0                       0.0000
       4                         0                       0.0000
       5                         0                       0.0000
       6                         0                       0.0000
       7                         0                       0.0000
       8                         0                       0.0000

Transpiratory and Evaporative Fractions of Crop Consumptive Use
    % Transpiration % Evap. for Precip. % Evap. for Irrig.
    3          0.000          1.000          1.000
    5          0.924          0.076          0.000

FRACTIONS OF IN-EFFICIENT LOSSES TO SW-RUNOFF FROM 
     PRECIPITATION:  IRRIGATION:
    3          0.600          0.500
    5          0.500          0.000
 
 SOLVING FOR HEAD 


     3 CALLS TO PCG ROUTINE FOR TIME STEP   1 IN STRESS PERIOD    5
    12 TOTAL ITERATIONS


     3 CALLS TO PCG ROUTINE FOR TIME STEP   1 IN STRESS PERIOD    5
    12 TOTAL ITERATIONS


     3 CALLS TO PCG ROUTINE FOR TIME STEP   1 IN STRESS PERIOD    5
    10 TOTAL ITERATIONS


     2 CALLS TO PCG ROUTINE FOR TIME STEP   1 IN STRESS PERIOD    5
     7 TOTAL ITERATIONS


     2 CALLS TO PCG ROUTINE FOR TIME STEP   1 IN STRESS PERIOD    5
     7 TOTAL ITERATIONS


     2 CALLS TO PCG ROUTINE FOR TIME STEP   1 IN STRESS PERIOD    5
     6 TOTAL ITERATIONS


     2 CALLS TO PCG ROUTINE FOR TIME STEP   1 IN STRESS PERIOD    5
     6 TOTAL ITERATIONS


     2 CALLS TO PCG ROUTINE FOR TIME STEP   1 IN STRESS PERIOD    5
     5 TOTAL ITERATIONS


     2 CALLS TO PCG ROUTINE FOR TIME STEP   1 IN STRESS PERIOD    5
     4 TOTAL ITERATIONS


     2 CALLS TO PCG ROUTINE FOR TIME STEP   1 IN STRESS PERIOD    5
     4 TOTAL ITERATIONS


     2 CALLS TO PCG ROUTINE FOR TIME STEP   1 IN STRESS PERIOD    5
     3 TOTAL ITERATIONS


     2 CALLS TO PCG ROUTINE FOR TIME STEP   1 IN STRESS PERIOD    5
     3 TOTAL ITERATIONS

 OUTPUT CONTROL FOR STRESS PERIOD      5   TIME STEP     1
    SAVE BUDGET
 UBDSV1 SAVING "         STORAGE" ON UNIT7013 AT TIME STEP    1, STRESS PERIOD   5
 UBDSV2 SAVING "   CONSTANT HEAD" ON UNIT7013 AT TIME STEP    1, STRESS PERIOD   5
 UBDSV1 SAVING "FLOW RIGHT FACE " ON UNIT7013 AT TIME STEP    1, STRESS PERIOD   5
 UBDSV1 SAVING "FLOW FRONT FACE " ON UNIT7013 AT TIME STEP    1, STRESS PERIOD   5
 UBDSV1 SAVING "FLOW LOWER FACE " ON UNIT7013 AT TIME STEP    1, STRESS PERIOD   5
 UBDSV4 SAVING "  STREAM LEAKAGE" ON UNIT7013 AT TIME STEP    1, STRESS PERIOD   5



 UBDSV3 SAVING "FARM  NET  RECH." ON UNIT7013 AT TIME STEP    1, STRESS PERIOD   5
 UBDSV4 SAVING " GHOST-NODE HEAD" ON UNIT7013 AT TIME STEP    1, STRESS PERIOD   5
1
  FLUX ACROSS PARENT-CHILD INTERFACE AT TIME STEP  1 IN STRESS PERIOD    5
  ------------------------------------------------------------------------
 G-N FLUX        PARENT        CHILD         DIFFERENCE      % DIFFERENCE
  RATE IN:      2.5374E+03    2.5370E+03     4.6436E-01        0.0183
 RATE OUT:      3.3467E+03    3.3466E+03     4.1504E-02        0.0012
 
 SOLVING FOR HEAD 
     3 CALLS TO PCG ROUTINE FOR TIME STEP   2 IN STRESS PERIOD    5
    11 TOTAL ITERATIONS
     3 CALLS TO PCG ROUTINE FOR TIME STEP   2 IN STRESS PERIOD    5
    12 TOTAL ITERATIONS
     2 CALLS TO PCG ROUTINE FOR TIME STEP   2 IN STRESS PERIOD    5
     8 TOTAL ITERATIONS
     2 CALLS TO PCG ROUTINE FOR TIME STEP   2 IN STRESS PERIOD    5
     7 TOTAL ITERATIONS
     2 CALLS TO PCG ROUTINE FOR TIME STEP   2 IN STRESS PERIOD    5
     7 TOTAL ITERATIONS
     2 CALLS TO PCG ROUTINE FOR TIME STEP   2 IN STRESS PERIOD    5
     7 TOTAL ITERATIONS
     2 CALLS TO PCG ROUTINE FOR TIME STEP   2 IN STRESS PERIOD    5
     6 TOTAL ITERATIONS
     2 CALLS TO PCG ROUTINE FOR TIME STEP   2 IN STRESS PERIOD    5
     5 TOTAL ITERATIONS
     2 CALLS TO PCG ROUTINE FOR TIME STEP   2 IN STRESS PERIOD    5
     5 TOTAL ITERATIONS
     2 CALLS TO PCG ROUTINE FOR TIME STEP   2 IN STRESS PERIOD    5
     4 TOTAL ITERATIONS
     2 CALLS TO PCG ROUTINE FOR TIME STEP   2 IN STRESS PERIOD    5
     3 TOTAL ITERATIONS
     2 CALLS TO PCG ROUTINE FOR TIME STEP   2 IN STRESS PERIOD    5
     3 TOTAL ITERATIONS

 OUTPUT CONTROL FOR STRESS PERIOD      5   TIME STEP     2
    SAVE BUDGET
 UBDSV1 SAVING "         STORAGE" ON UNIT7013 AT TIME STEP    2, STRESS PERIOD   5
 UBDSV2 SAVING "   CONSTANT HEAD" ON UNIT7013 AT TIME STEP    2, STRESS PERIOD   5
 UBDSV1 SAVING "FLOW RIGHT FACE " ON UNIT7013 AT TIME STEP    2, STRESS PERIOD   5
 UBDSV1 SAVING "FLOW FRONT FACE " ON UNIT7013 AT TIME STEP    2, STRESS PERIOD   5
 UBDSV1 SAVING "FLOW LOWER FACE " ON UNIT7013 AT TIME STEP    2, STRESS PERIOD   5
 UBDSV4 SAVING "  STREAM LEAKAGE" ON UNIT7013 AT TIME STEP    2, STRESS PERIOD   5



 UBDSV3 SAVING "FARM  NET  RECH." ON UNIT7013 AT TIME STEP    2, STRESS PERIOD   5
 UBDSV4 SAVING " GHOST-NODE HEAD" ON UNIT7013 AT TIME STEP    2, STRESS PERIOD   5
1
  VOLUMETRIC BUDGET FOR ENTIRE MODEL AT END OF TIME STEP    2 IN STRESS PERIOD      5
  ------------------------------------------------------------------------------

     CUMULATIVE VOLUMES      L**3       RATES FOR THIS TIME STEP      L**3/T
     ------------------                 ------------------------

           IN:                                      IN:
           ---                                      ---
             STORAGE =       79067.8125               STORAGE =         660.1100
       CONSTANT HEAD =           0.0000         CONSTANT HEAD =           0.0000
      STREAM LEAKAGE =        3089.7627        STREAM LEAKAGE =         185.8302
          FARM WELLS =           0.0000            FARM WELLS =           0.0000
    FARM  NET  RECH. =       86564.1094      FARM  NET  RECH. =           0.0000
     GHOST-NODE HEAD =      476876.1875       GHOST-NODE HEAD =        2445.8994

            TOTAL IN =      645597.8750              TOTAL IN =        3291.8396

          OUT:                                     OUT:
          ----                                     ----
             STORAGE =        8441.2637               STORAGE =           0.0000
       CONSTANT HEAD =           0.0000         CONSTANT HEAD =           0.0000
      STREAM LEAKAGE =       96433.1719        STREAM LEAKAGE =           0.0000
          FARM WELLS =           0.0000            FARM WELLS =           0.0000
    FARM  NET  RECH. =        3526.6760      FARM  NET  RECH. =           0.2129
     GHOST-NODE HEAD =      537198.1250       GHOST-NODE HEAD =        3291.6182

           TOTAL OUT =      645599.2500             TOTAL OUT =        3291.8311

            IN - OUT =          -1.3750              IN - OUT =       8.5449E-03

 PERCENT DISCREPANCY =          -0.00     PERCENT DISCREPANCY =           0.00






          TIME SUMMARY AT END OF TIME STEP     2 IN STRESS PERIOD      5
                    SECONDS     MINUTES      HOURS       DAYS        YEARS
                    -----------------------------------------------------------
   TIME STEP LENGTH 1.31414E+06  21902.      365.04      15.210     4.16427E-02
 STRESS PERIOD TIME 2.62829E+06  43805.      730.08      30.420     8.32854E-02
         TOTAL TIME 1.31414E+07 2.19024E+05  3650.4      152.10     0.41643    
1
1
  FLUX ACROSS PARENT-CHILD INTERFACE AT TIME STEP  2 IN STRESS PERIOD    5
  ------------------------------------------------------------------------
 G-N FLUX        PARENT        CHILD         DIFFERENCE      % DIFFERENCE
  RATE IN:      2.4465E+03    2.4459E+03     6.4160E-01        0.0262
 RATE OUT:      3.2919E+03    3.2916E+03     2.9443E-01        0.0089
1
                            STRESS PERIOD NO.      6, LENGTH =   30.42000    
                            -----------------------------------------------

                              NUMBER OF TIME STEPS =     2

                               MULTIPLIER FOR DELT =     1.000

                            INITIAL TIME STEP SIZE =   15.21000    

 REUSING STREAM SEGMENT DATA FROM LAST STRESS PERIOD

 Parameter:  WELLS1
 WELL NO. LAYER    ROW    COL  F-WELL ID    FARM ID         QMAX         QMAXRESET       LGRGRID         
 --------------------------------------------------------------------------------------------------------
       1      1      2      2          5          2      2.0000E+03              0              0
       2      1      5      5          6          2      1.0000E+03              0              0

 NUMBER OF ACTIVE FARM WELLS:        2

 FARM-ID  NUMBER OF WELLS PER FARM  TOTAL MAX.CAPACITY PER FARM
       1                         0                       0.0000
       2                         2                    3000.0000
       3                         0                       0.0000
       4                         0                       0.0000
       5                         0                       0.0000
       6                         0                       0.0000
       7                         0                       0.0000
       8                         0                       0.0000

Transpiratory and Evaporative Fractions of Crop Consumptive Use
    % Transpiration % Evap. for Precip. % Evap. for Irrig.
    3          0.000          1.000          1.000
    5          0.927          0.073          0.000

FRACTIONS OF IN-EFFICIENT LOSSES TO SW-RUNOFF FROM 
     PRECIPITATION:  IRRIGATION:
    3          0.600          0.500
    5          0.500          0.000
 
 SOLVING FOR HEAD 


     3 CALLS TO PCG ROUTINE FOR TIME STEP   1 IN STRESS PERIOD    6
    10 TOTAL ITERATIONS


     3 CALLS TO PCG ROUTINE FOR TIME STEP   1 IN STRESS PERIOD    6
    10 TOTAL ITERATIONS


     2 CALLS TO PCG ROUTINE FOR TIME STEP   1 IN STRESS PERIOD    6
     7 TOTAL ITERATIONS


     2 CALLS TO PCG ROUTINE FOR TIME STEP   1 IN STRESS PERIOD    6
     6 TOTAL ITERATIONS


     2 CALLS TO PCG ROUTINE FOR TIME STEP   1 IN STRESS PERIOD    6
     6 TOTAL ITERATIONS


     2 CALLS TO PCG ROUTINE FOR TIME STEP   1 IN STRESS PERIOD    6
     6 TOTAL ITERATIONS


     2 CALLS TO PCG ROUTINE FOR TIME STEP   1 IN STRESS PERIOD    6
     6 TOTAL ITERATIONS


     2 CALLS TO PCG ROUTINE FOR TIME STEP   1 IN STRESS PERIOD    6
     4 TOTAL ITERATIONS


     2 CALLS TO PCG ROUTINE FOR TIME STEP   1 IN STRESS PERIOD    6
     4 TOTAL ITERATIONS


     2 CALLS TO PCG ROUTINE FOR TIME STEP   1 IN STRESS PERIOD    6
     3 TOTAL ITERATIONS

 OUTPUT CONTROL FOR STRESS PERIOD      6   TIME STEP     1
    SAVE BUDGET
 UBDSV1 SAVING "         STORAGE" ON UNIT7013 AT TIME STEP    1, STRESS PERIOD   6
 UBDSV2 SAVING "   CONSTANT HEAD" ON UNIT7013 AT TIME STEP    1, STRESS PERIOD   6
 UBDSV1 SAVING "FLOW RIGHT FACE " ON UNIT7013 AT TIME STEP    1, STRESS PERIOD   6
 UBDSV1 SAVING "FLOW FRONT FACE " ON UNIT7013 AT TIME STEP    1, STRESS PERIOD   6
 UBDSV1 SAVING "FLOW LOWER FACE " ON UNIT7013 AT TIME STEP    1, STRESS PERIOD   6
 UBDSV4 SAVING "  STREAM LEAKAGE" ON UNIT7013 AT TIME STEP    1, STRESS PERIOD   6



 UBDSV3 SAVING "FARM  NET  RECH." ON UNIT7013 AT TIME STEP    1, STRESS PERIOD   6
 UBDSV4 SAVING " GHOST-NODE HEAD" ON UNIT7013 AT TIME STEP    1, STRESS PERIOD   6
1
  FLUX ACROSS PARENT-CHILD INTERFACE AT TIME STEP  1 IN STRESS PERIOD    6
  ------------------------------------------------------------------------
 G-N FLUX        PARENT        CHILD         DIFFERENCE      % DIFFERENCE
  RATE IN:      2.2461E+03    2.2465E+03    -3.7671E-01       -0.0168
 RATE OUT:      3.1787E+03    3.1792E+03    -5.4126E-01       -0.0170
 
 SOLVING FOR HEAD 
     3 CALLS TO PCG ROUTINE FOR TIME STEP   2 IN STRESS PERIOD    6
    10 TOTAL ITERATIONS
     3 CALLS TO PCG ROUTINE FOR TIME STEP   2 IN STRESS PERIOD    6
    10 TOTAL ITERATIONS
     2 CALLS TO PCG ROUTINE FOR TIME STEP   2 IN STRESS PERIOD    6
     7 TOTAL ITERATIONS
     2 CALLS TO PCG ROUTINE FOR TIME STEP   2 IN STRESS PERIOD    6
     7 TOTAL ITERATIONS
     2 CALLS TO PCG ROUTINE FOR TIME STEP   2 IN STRESS PERIOD    6
     7 TOTAL ITERATIONS
     2 CALLS TO PCG ROUTINE FOR TIME STEP   2 IN STRESS PERIOD    6
     6 TOTAL ITERATIONS
     2 CALLS TO PCG ROUTINE FOR TIME STEP   2 IN STRESS PERIOD    6
     5 TOTAL ITERATIONS
     2 CALLS TO PCG ROUTINE FOR TIME STEP   2 IN STRESS PERIOD    6
     4 TOTAL ITERATIONS
     2 CALLS TO PCG ROUTINE FOR TIME STEP   2 IN STRESS PERIOD    6
     4 TOTAL ITERATIONS
     2 CALLS TO PCG ROUTINE FOR TIME STEP   2 IN STRESS PERIOD    6
     3 TOTAL ITERATIONS
     2 CALLS TO PCG ROUTINE FOR TIME STEP   2 IN STRESS PERIOD    6
     3 TOTAL ITERATIONS

 OUTPUT CONTROL FOR STRESS PERIOD      6   TIME STEP     2
    PRINT BUDGET
    SAVE HEAD FOR ALL LAYERS
    SAVE BUDGET
 UBDSV1 SAVING "         STORAGE" ON UNIT7013 AT TIME STEP    2, STRESS PERIOD   6
 UBDSV2 SAVING "   CONSTANT HEAD" ON UNIT7013 AT TIME STEP    2, STRESS PERIOD   6
 UBDSV1 SAVING "FLOW RIGHT FACE " ON UNIT7013 AT TIME STEP    2, STRESS PERIOD   6
 UBDSV1 SAVING "FLOW FRONT FACE " ON UNIT7013 AT TIME STEP    2, STRESS PERIOD   6
 UBDSV1 SAVING "FLOW LOWER FACE " ON UNIT7013 AT TIME STEP    2, STRESS PERIOD   6
 UBDSV4 SAVING "  STREAM LEAKAGE" ON UNIT7013 AT TIME STEP    2, STRESS PERIOD   6



 UBDSV3 SAVING "FARM  NET  RECH." ON UNIT7013 AT TIME STEP    2, STRESS PERIOD   6
 UBDSV4 SAVING " GHOST-NODE HEAD" ON UNIT7013 AT TIME STEP    2, STRESS PERIOD   6

 HEAD WILL BE SAVED ON UNIT 2213 AT END OF TIME STEP     2, STRESS PERIOD      6
1
  VOLUMETRIC BUDGET FOR ENTIRE MODEL AT END OF TIME STEP    2 IN STRESS PERIOD      6
  ------------------------------------------------------------------------------

     CUMULATIVE VOLUMES      L**3       RATES FOR THIS TIME STEP      L**3/T
     ------------------                 ------------------------

           IN:                                      IN:
           ---                                      ---
             STORAGE =       94855.9922               STORAGE =         468.2668
       CONSTANT HEAD =           0.0000         CONSTANT HEAD =           0.0000
      STREAM LEAKAGE =       16235.6699        STREAM LEAKAGE =         501.2855
          FARM WELLS =           0.0000            FARM WELLS =           0.0000
    FARM  NET  RECH. =       86564.1094      FARM  NET  RECH. =           0.0000
     GHOST-NODE HEAD =      542861.0000       GHOST-NODE HEAD =        2091.7393

            TOTAL IN =      740516.7500              TOTAL IN =        3061.2915

          OUT:                                     OUT:
          ----                                     ----
             STORAGE =        8441.2637               STORAGE =           0.0000
       CONSTANT HEAD =           0.0000         CONSTANT HEAD =           0.0000
      STREAM LEAKAGE =       96433.1719        STREAM LEAKAGE =           0.0000
          FARM WELLS =           0.0000            FARM WELLS =           0.0000
    FARM  NET  RECH. =        3526.6760      FARM  NET  RECH. =           0.0000
     GHOST-NODE HEAD =      632115.4375       GHOST-NODE HEAD =        3061.2612

           TOTAL OUT =      740516.5625             TOTAL OUT =        3061.2612

            IN - OUT =           0.1875              IN - OUT =       3.0273E-02

 PERCENT DISCREPANCY =           0.00     PERCENT DISCREPANCY =           0.00






          TIME SUMMARY AT END OF TIME STEP     2 IN STRESS PERIOD      6
                    SECONDS     MINUTES      HOURS       DAYS        YEARS
                    -----------------------------------------------------------
   TIME STEP LENGTH 1.31414E+06  21902.      365.04      15.210     4.16427E-02
 STRESS PERIOD TIME 2.62829E+06  43805.      730.08      30.420     8.32854E-02
         TOTAL TIME 1.57697E+07 2.62829E+05  4380.5      182.52     0.49971    
1
1
  FLUX ACROSS PARENT-CHILD INTERFACE AT TIME STEP  2 IN STRESS PERIOD    6
  ------------------------------------------------------------------------
 G-N FLUX        PARENT        CHILD         DIFFERENCE      % DIFFERENCE
  RATE IN:      2.0916E+03    2.0917E+03    -1.5527E-01       -0.0074
 RATE OUT:      3.0614E+03    3.0613E+03     1.7700E-01        0.0058
1
                            STRESS PERIOD NO.      7, LENGTH =   30.42000    
                            -----------------------------------------------

                              NUMBER OF TIME STEPS =     2

                               MULTIPLIER FOR DELT =     1.000

                            INITIAL TIME STEP SIZE =   15.21000    

 REUSING STREAM SEGMENT DATA FROM LAST STRESS PERIOD

 Parameter:  WELLS1
 WELL NO. LAYER    ROW    COL  F-WELL ID    FARM ID         QMAX         QMAXRESET       LGRGRID         
 --------------------------------------------------------------------------------------------------------
       1      1      2      2          5          2      2.0000E+03              0              0
       2      1      5      5          6          2      1.0000E+03              0              0

 NUMBER OF ACTIVE FARM WELLS:        2

 FARM-ID  NUMBER OF WELLS PER FARM  TOTAL MAX.CAPACITY PER FARM
       1                         0                       0.0000
       2                         2                    3000.0000
       3                         0                       0.0000
       4                         0                       0.0000
       5                         0                       0.0000
       6                         0                       0.0000
       7                         0                       0.0000
       8                         0                       0.0000

Transpiratory and Evaporative Fractions of Crop Consumptive Use
    % Transpiration % Evap. for Precip. % Evap. for Irrig.
    3          0.000          1.000          1.000
    5          0.927          0.073          0.000

FRACTIONS OF IN-EFFICIENT LOSSES TO SW-RUNOFF FROM 
     PRECIPITATION:  IRRIGATION:
    3          0.600          0.500
    5          0.500          0.000
 
 SOLVING FOR HEAD 


     3 CALLS TO PCG ROUTINE FOR TIME STEP   1 IN STRESS PERIOD    7
    10 TOTAL ITERATIONS


     3 CALLS TO PCG ROUTINE FOR TIME STEP   1 IN STRESS PERIOD    7
    10 TOTAL ITERATIONS


     2 CALLS TO PCG ROUTINE FOR TIME STEP   1 IN STRESS PERIOD    7
     7 TOTAL ITERATIONS


     2 CALLS TO PCG ROUTINE FOR TIME STEP   1 IN STRESS PERIOD    7
     8 TOTAL ITERATIONS


     2 CALLS TO PCG ROUTINE FOR TIME STEP   1 IN STRESS PERIOD    7
     7 TOTAL ITERATIONS


     2 CALLS TO PCG ROUTINE FOR TIME STEP   1 IN STRESS PERIOD    7
     6 TOTAL ITERATIONS


     2 CALLS TO PCG ROUTINE FOR TIME STEP   1 IN STRESS PERIOD    7
     5 TOTAL ITERATIONS


     2 CALLS TO PCG ROUTINE FOR TIME STEP   1 IN STRESS PERIOD    7
     5 TOTAL ITERATIONS


     2 CALLS TO PCG ROUTINE FOR TIME STEP   1 IN STRESS PERIOD    7
     4 TOTAL ITERATIONS


     2 CALLS TO PCG ROUTINE FOR TIME STEP   1 IN STRESS PERIOD    7
     3 TOTAL ITERATIONS


     2 CALLS TO PCG ROUTINE FOR TIME STEP   1 IN STRESS PERIOD    7
     3 TOTAL ITERATIONS

 OUTPUT CONTROL FOR STRESS PERIOD      7   TIME STEP     1
    SAVE BUDGET
 UBDSV1 SAVING "         STORAGE" ON UNIT7013 AT TIME STEP    1, STRESS PERIOD   7
 UBDSV2 SAVING "   CONSTANT HEAD" ON UNIT7013 AT TIME STEP    1, STRESS PERIOD   7
 UBDSV1 SAVING "FLOW RIGHT FACE " ON UNIT7013 AT TIME STEP    1, STRESS PERIOD   7
 UBDSV1 SAVING "FLOW FRONT FACE " ON UNIT7013 AT TIME STEP    1, STRESS PERIOD   7
 UBDSV1 SAVING "FLOW LOWER FACE " ON UNIT7013 AT TIME STEP    1, STRESS PERIOD   7
 UBDSV4 SAVING "  STREAM LEAKAGE" ON UNIT7013 AT TIME STEP    1, STRESS PERIOD   7



 UBDSV3 SAVING "FARM  NET  RECH." ON UNIT7013 AT TIME STEP    1, STRESS PERIOD   7
 UBDSV4 SAVING " GHOST-NODE HEAD" ON UNIT7013 AT TIME STEP    1, STRESS PERIOD   7
1
  FLUX ACROSS PARENT-CHILD INTERFACE AT TIME STEP  1 IN STRESS PERIOD    7
  ------------------------------------------------------------------------
 G-N FLUX        PARENT        CHILD         DIFFERENCE      % DIFFERENCE
  RATE IN:      2.0048E+03    2.0052E+03    -3.2092E-01       -0.0160
 RATE OUT:      2.9737E+03    2.9731E+03     5.5078E-01        0.0185
 
 SOLVING FOR HEAD 
     3 CALLS TO PCG ROUTINE FOR TIME STEP   2 IN STRESS PERIOD    7
    10 TOTAL ITERATIONS
     3 CALLS TO PCG ROUTINE FOR TIME STEP   2 IN STRESS PERIOD    7
    10 TOTAL ITERATIONS
     2 CALLS TO PCG ROUTINE FOR TIME STEP   2 IN STRESS PERIOD    7
     7 TOTAL ITERATIONS
     2 CALLS TO PCG ROUTINE FOR TIME STEP   2 IN STRESS PERIOD    7
     7 TOTAL ITERATIONS
     2 CALLS TO PCG ROUTINE FOR TIME STEP   2 IN STRESS PERIOD    7
     7 TOTAL ITERATIONS
     2 CALLS TO PCG ROUTINE FOR TIME STEP   2 IN STRESS PERIOD    7
     6 TOTAL ITERATIONS
     2 CALLS TO PCG ROUTINE FOR TIME STEP   2 IN STRESS PERIOD    7
     4 TOTAL ITERATIONS
     2 CALLS TO PCG ROUTINE FOR TIME STEP   2 IN STRESS PERIOD    7
     5 TOTAL ITERATIONS
     2 CALLS TO PCG ROUTINE FOR TIME STEP   2 IN STRESS PERIOD    7
     4 TOTAL ITERATIONS
     2 CALLS TO PCG ROUTINE FOR TIME STEP   2 IN STRESS PERIOD    7
     3 TOTAL ITERATIONS
     2 CALLS TO PCG ROUTINE FOR TIME STEP   2 IN STRESS PERIOD    7
     3 TOTAL ITERATIONS

 OUTPUT CONTROL FOR STRESS PERIOD      7   TIME STEP     2
    SAVE BUDGET
 UBDSV1 SAVING "         STORAGE" ON UNIT7013 AT TIME STEP    2, STRESS PERIOD   7
 UBDSV2 SAVING "   CONSTANT HEAD" ON UNIT7013 AT TIME STEP    2, STRESS PERIOD   7
 UBDSV1 SAVING "FLOW RIGHT FACE " ON UNIT7013 AT TIME STEP    2, STRESS PERIOD   7
 UBDSV1 SAVING "FLOW FRONT FACE " ON UNIT7013 AT TIME STEP    2, STRESS PERIOD   7
 UBDSV1 SAVING "FLOW LOWER FACE " ON UNIT7013 AT TIME STEP    2, STRESS PERIOD   7
 UBDSV4 SAVING "  STREAM LEAKAGE" ON UNIT7013 AT TIME STEP    2, STRESS PERIOD   7



 UBDSV3 SAVING "FARM  NET  RECH." ON UNIT7013 AT TIME STEP    2, STRESS PERIOD   7
 UBDSV4 SAVING " GHOST-NODE HEAD" ON UNIT7013 AT TIME STEP    2, STRESS PERIOD   7
1
  VOLUMETRIC BUDGET FOR ENTIRE MODEL AT END OF TIME STEP    2 IN STRESS PERIOD      7
  ------------------------------------------------------------------------------

     CUMULATIVE VOLUMES      L**3       RATES FOR THIS TIME STEP      L**3/T
     ------------------                 ------------------------

           IN:                                      IN:
           ---                                      ---
             STORAGE =      106446.6562               STORAGE =         354.0286
       CONSTANT HEAD =           0.0000         CONSTANT HEAD =           0.0000
      STREAM LEAKAGE =       34790.7148        STREAM LEAKAGE =         659.8887
          FARM WELLS =           0.0000            FARM WELLS =           0.0000
    FARM  NET  RECH. =       86564.1094      FARM  NET  RECH. =           0.0000
     GHOST-NODE HEAD =      601977.6875       GHOST-NODE HEAD =        1881.5428

            TOTAL IN =      829779.1875              TOTAL IN =        2895.4602

          OUT:                                     OUT:
          ----                                     ----
             STORAGE =        8441.2637               STORAGE =           0.0000
       CONSTANT HEAD =           0.0000         CONSTANT HEAD =           0.0000
      STREAM LEAKAGE =       96433.1719        STREAM LEAKAGE =           0.0000
          FARM WELLS =           0.0000            FARM WELLS =           0.0000
    FARM  NET  RECH. =        3526.6760      FARM  NET  RECH. =           0.0000
     GHOST-NODE HEAD =      721376.7500       GHOST-NODE HEAD =        2895.4492

           TOTAL OUT =      829777.8750             TOTAL OUT =        2895.4492

            IN - OUT =           1.3125              IN - OUT =       1.0986E-02

 PERCENT DISCREPANCY =           0.00     PERCENT DISCREPANCY =           0.00






          TIME SUMMARY AT END OF TIME STEP     2 IN STRESS PERIOD      7
                    SECONDS     MINUTES      HOURS       DAYS        YEARS
                    -----------------------------------------------------------
   TIME STEP LENGTH 1.31414E+06  21902.      365.04      15.210     4.16427E-02
 STRESS PERIOD TIME 2.62829E+06  43805.      730.08      30.420     8.32854E-02
         TOTAL TIME 1.83980E+07 3.06634E+05  5110.6      212.94     0.58300    
1
1
  FLUX ACROSS PARENT-CHILD INTERFACE AT TIME STEP  2 IN STRESS PERIOD    7
  ------------------------------------------------------------------------
 G-N FLUX        PARENT        CHILD         DIFFERENCE      % DIFFERENCE
  RATE IN:      1.8813E+03    1.8815E+03    -2.1924E-01       -0.0117
 RATE OUT:      2.8959E+03    2.8954E+03     4.7168E-01        0.0163
1
                            STRESS PERIOD NO.      8, LENGTH =   30.42000    
                            -----------------------------------------------

                              NUMBER OF TIME STEPS =     2

                               MULTIPLIER FOR DELT =     1.000

                            INITIAL TIME STEP SIZE =   15.21000    

 REUSING STREAM SEGMENT DATA FROM LAST STRESS PERIOD

 Parameter:  WELLS1
 WELL NO. LAYER    ROW    COL  F-WELL ID    FARM ID         QMAX         QMAXRESET       LGRGRID         
 --------------------------------------------------------------------------------------------------------
       1      1      2      2          5          2      2.0000E+03              0              0
       2      1      5      5          6          2      1.0000E+03              0              0

 NUMBER OF ACTIVE FARM WELLS:        2

 FARM-ID  NUMBER OF WELLS PER FARM  TOTAL MAX.CAPACITY PER FARM
       1                         0                       0.0000
       2                         2                    3000.0000
       3                         0                       0.0000
       4                         0                       0.0000
       5                         0                       0.0000
       6                         0                       0.0000
       7                         0                       0.0000
       8                         0                       0.0000

Transpiratory and Evaporative Fractions of Crop Consumptive Use
    % Transpiration % Evap. for Precip. % Evap. for Irrig.
    3          0.000          1.000          1.000
    5          0.927          0.073          0.000

FRACTIONS OF IN-EFFICIENT LOSSES TO SW-RUNOFF FROM 
     PRECIPITATION:  IRRIGATION:
    3          0.600          0.500
    5          0.500          0.000
 
 SOLVING FOR HEAD 


     3 CALLS TO PCG ROUTINE FOR TIME STEP   1 IN STRESS PERIOD    8
    10 TOTAL ITERATIONS


     6 CALLS TO PCG ROUTINE FOR TIME STEP   1 IN STRESS PERIOD    8
    25 TOTAL ITERATIONS


     5 CALLS TO PCG ROUTINE FOR TIME STEP   1 IN STRESS PERIOD    8
    21 TOTAL ITERATIONS


     4 CALLS TO PCG ROUTINE FOR TIME STEP   1 IN STRESS PERIOD    8
    15 TOTAL ITERATIONS


     3 CALLS TO PCG ROUTINE FOR TIME STEP   1 IN STRESS PERIOD    8
     9 TOTAL ITERATIONS


     2 CALLS TO PCG ROUTINE FOR TIME STEP   1 IN STRESS PERIOD    8
     6 TOTAL ITERATIONS


     2 CALLS TO PCG ROUTINE FOR TIME STEP   1 IN STRESS PERIOD    8
     5 TOTAL ITERATIONS


     2 CALLS TO PCG ROUTINE FOR TIME STEP   1 IN STRESS PERIOD    8
     5 TOTAL ITERATIONS


     2 CALLS TO PCG ROUTINE FOR TIME STEP   1 IN STRESS PERIOD    8
     5 TOTAL ITERATIONS


     2 CALLS TO PCG ROUTINE FOR TIME STEP   1 IN STRESS PERIOD    8
     3 TOTAL ITERATIONS


     2 CALLS TO PCG ROUTINE FOR TIME STEP   1 IN STRESS PERIOD    8
     3 TOTAL ITERATIONS

 OUTPUT CONTROL FOR STRESS PERIOD      8   TIME STEP     1
    SAVE BUDGET
 UBDSV1 SAVING "         STORAGE" ON UNIT7013 AT TIME STEP    1, STRESS PERIOD   8
 UBDSV2 SAVING "   CONSTANT HEAD" ON UNIT7013 AT TIME STEP    1, STRESS PERIOD   8
 UBDSV1 SAVING "FLOW RIGHT FACE " ON UNIT7013 AT TIME STEP    1, STRESS PERIOD   8
 UBDSV1 SAVING "FLOW FRONT FACE " ON UNIT7013 AT TIME STEP    1, STRESS PERIOD   8
 UBDSV1 SAVING "FLOW LOWER FACE " ON UNIT7013 AT TIME STEP    1, STRESS PERIOD   8
 UBDSV4 SAVING "  STREAM LEAKAGE" ON UNIT7013 AT TIME STEP    1, STRESS PERIOD   8



 UBDSV3 SAVING "FARM  NET  RECH." ON UNIT7013 AT TIME STEP    1, STRESS PERIOD   8
 UBDSV4 SAVING " GHOST-NODE HEAD" ON UNIT7013 AT TIME STEP    1, STRESS PERIOD   8
1
  FLUX ACROSS PARENT-CHILD INTERFACE AT TIME STEP  1 IN STRESS PERIOD    8
  ------------------------------------------------------------------------
 G-N FLUX        PARENT        CHILD         DIFFERENCE      % DIFFERENCE
  RATE IN:      1.8303E+03    1.8308E+03    -4.9011E-01       -0.0268
 RATE OUT:      2.9046E+03    2.9035E+03     1.0989E+00        0.0378
 
 SOLVING FOR HEAD 
     3 CALLS TO PCG ROUTINE FOR TIME STEP   2 IN STRESS PERIOD    8
    10 TOTAL ITERATIONS
     5 CALLS TO PCG ROUTINE FOR TIME STEP   2 IN STRESS PERIOD    8
    22 TOTAL ITERATIONS
     5 CALLS TO PCG ROUTINE FOR TIME STEP   2 IN STRESS PERIOD    8
    18 TOTAL ITERATIONS
     5 CALLS TO PCG ROUTINE FOR TIME STEP   2 IN STRESS PERIOD    8
    18 TOTAL ITERATIONS
     5 CALLS TO PCG ROUTINE FOR TIME STEP   2 IN STRESS PERIOD    8
    16 TOTAL ITERATIONS
     4 CALLS TO PCG ROUTINE FOR TIME STEP   2 IN STRESS PERIOD    8
    12 TOTAL ITERATIONS
     3 CALLS TO PCG ROUTINE FOR TIME STEP   2 IN STRESS PERIOD    8
     7 TOTAL ITERATIONS
     3 CALLS TO PCG ROUTINE FOR TIME STEP   2 IN STRESS PERIOD    8
     7 TOTAL ITERATIONS
     3 CALLS TO PCG ROUTINE FOR TIME STEP   2 IN STRESS PERIOD    8
     7 TOTAL ITERATIONS
     2 CALLS TO PCG ROUTINE FOR TIME STEP   2 IN STRESS PERIOD    8
     3 TOTAL ITERATIONS
     2 CALLS TO PCG ROUTINE FOR TIME STEP   2 IN STRESS PERIOD    8
     3 TOTAL ITERATIONS

 OUTPUT CONTROL FOR STRESS PERIOD      8   TIME STEP     2
    SAVE BUDGET
 UBDSV1 SAVING "         STORAGE" ON UNIT7013 AT TIME STEP    2, STRESS PERIOD   8
 UBDSV2 SAVING "   CONSTANT HEAD" ON UNIT7013 AT TIME STEP    2, STRESS PERIOD   8
 UBDSV1 SAVING "FLOW RIGHT FACE " ON UNIT7013 AT TIME STEP    2, STRESS PERIOD   8
 UBDSV1 SAVING "FLOW FRONT FACE " ON UNIT7013 AT TIME STEP    2, STRESS PERIOD   8
 UBDSV1 SAVING "FLOW LOWER FACE " ON UNIT7013 AT TIME STEP    2, STRESS PERIOD   8
 UBDSV4 SAVING "  STREAM LEAKAGE" ON UNIT7013 AT TIME STEP    2, STRESS PERIOD   8



 UBDSV3 SAVING "FARM  NET  RECH." ON UNIT7013 AT TIME STEP    2, STRESS PERIOD   8
 UBDSV4 SAVING " GHOST-NODE HEAD" ON UNIT7013 AT TIME STEP    2, STRESS PERIOD   8
1
  VOLUMETRIC BUDGET FOR ENTIRE MODEL AT END OF TIME STEP    2 IN STRESS PERIOD      8
  ------------------------------------------------------------------------------

     CUMULATIVE VOLUMES      L**3       RATES FOR THIS TIME STEP      L**3/T
     ------------------                 ------------------------

           IN:                                      IN:
           ---                                      ---
             STORAGE =      116814.1562               STORAGE =         356.8334
       CONSTANT HEAD =           0.0000         CONSTANT HEAD =           0.0000
      STREAM LEAKAGE =       55207.3398        STREAM LEAKAGE =         594.3519
          FARM WELLS =           0.0000            FARM WELLS =           0.0000
    FARM  NET  RECH. =       86564.1094      FARM  NET  RECH. =           0.0000
     GHOST-NODE HEAD =      657782.1875       GHOST-NODE HEAD =        1838.1722

            TOTAL IN =      916367.8125              TOTAL IN =        2789.3574

          OUT:                                     OUT:
          ----                                     ----
             STORAGE =        8441.2637               STORAGE =           0.0000
       CONSTANT HEAD =           0.0000         CONSTANT HEAD =           0.0000
      STREAM LEAKAGE =       96433.1719        STREAM LEAKAGE =           0.0000
          FARM WELLS =           0.0000            FARM WELLS =           0.0000
    FARM  NET  RECH. =        3526.6760      FARM  NET  RECH. =           0.0000
     GHOST-NODE HEAD =      807965.3750       GHOST-NODE HEAD =        2789.3755

           TOTAL OUT =      916366.5000             TOTAL OUT =        2789.3755

            IN - OUT =           1.3125              IN - OUT =      -1.8066E-02

 PERCENT DISCREPANCY =           0.00     PERCENT DISCREPANCY =          -0.00






          TIME SUMMARY AT END OF TIME STEP     2 IN STRESS PERIOD      8
                    SECONDS     MINUTES      HOURS       DAYS        YEARS
                    -----------------------------------------------------------
   TIME STEP LENGTH 1.31414E+06  21902.      365.04      15.210     4.16427E-02
 STRESS PERIOD TIME 2.62829E+06  43805.      730.08      30.420     8.32854E-02
         TOTAL TIME 2.10263E+07 3.50438E+05  5840.6      243.36     0.66628    
1
1
  FLUX ACROSS PARENT-CHILD INTERFACE AT TIME STEP  2 IN STRESS PERIOD    8
  ------------------------------------------------------------------------
 G-N FLUX        PARENT        CHILD         DIFFERENCE      % DIFFERENCE
  RATE IN:      1.8378E+03    1.8382E+03    -3.5498E-01       -0.0193
 RATE OUT:      2.7906E+03    2.7894E+03     1.2258E+00        0.0439
1
                            STRESS PERIOD NO.      9, LENGTH =   30.42000    
                            -----------------------------------------------

                              NUMBER OF TIME STEPS =     2

                               MULTIPLIER FOR DELT =     1.000

                            INITIAL TIME STEP SIZE =   15.21000    

 REUSING STREAM SEGMENT DATA FROM LAST STRESS PERIOD

 Parameter:  WELLS1
 WELL NO. LAYER    ROW    COL  F-WELL ID    FARM ID         QMAX         QMAXRESET       LGRGRID         
 --------------------------------------------------------------------------------------------------------
       1      1      2      2          5          2      2.0000E+03              0              0
       2      1      5      5          6          2      1.0000E+03              0              0

 NUMBER OF ACTIVE FARM WELLS:        2

 FARM-ID  NUMBER OF WELLS PER FARM  TOTAL MAX.CAPACITY PER FARM
       1                         0                       0.0000
       2                         2                    3000.0000
       3                         0                       0.0000
       4                         0                       0.0000
       5                         0                       0.0000
       6                         0                       0.0000
       7                         0                       0.0000
       8                         0                       0.0000

Transpiratory and Evaporative Fractions of Crop Consumptive Use
    % Transpiration % Evap. for Precip. % Evap. for Irrig.
    3          0.661          0.339          0.339
    5          0.927          0.073          0.000

FRACTIONS OF IN-EFFICIENT LOSSES TO SW-RUNOFF FROM 
     PRECIPITATION:  IRRIGATION:
    3          0.600          0.500
    5          0.500          0.000
 
 SOLVING FOR HEAD 


     3 CALLS TO PCG ROUTINE FOR TIME STEP   1 IN STRESS PERIOD    9
    12 TOTAL ITERATIONS


     3 CALLS TO PCG ROUTINE FOR TIME STEP   1 IN STRESS PERIOD    9
    10 TOTAL ITERATIONS


     2 CALLS TO PCG ROUTINE FOR TIME STEP   1 IN STRESS PERIOD    9
     7 TOTAL ITERATIONS


     3 CALLS TO PCG ROUTINE FOR TIME STEP   1 IN STRESS PERIOD    9
    10 TOTAL ITERATIONS


     2 CALLS TO PCG ROUTINE FOR TIME STEP   1 IN STRESS PERIOD    9
     7 TOTAL ITERATIONS


     2 CALLS TO PCG ROUTINE FOR TIME STEP   1 IN STRESS PERIOD    9
     6 TOTAL ITERATIONS


     2 CALLS TO PCG ROUTINE FOR TIME STEP   1 IN STRESS PERIOD    9
     5 TOTAL ITERATIONS


     2 CALLS TO PCG ROUTINE FOR TIME STEP   1 IN STRESS PERIOD    9
     5 TOTAL ITERATIONS


     2 CALLS TO PCG ROUTINE FOR TIME STEP   1 IN STRESS PERIOD    9
     4 TOTAL ITERATIONS


     2 CALLS TO PCG ROUTINE FOR TIME STEP   1 IN STRESS PERIOD    9
     3 TOTAL ITERATIONS


     2 CALLS TO PCG ROUTINE FOR TIME STEP   1 IN STRESS PERIOD    9
     3 TOTAL ITERATIONS

 OUTPUT CONTROL FOR STRESS PERIOD      9   TIME STEP     1
    SAVE BUDGET
 UBDSV1 SAVING "         STORAGE" ON UNIT7013 AT TIME STEP    1, STRESS PERIOD   9
 UBDSV2 SAVING "   CONSTANT HEAD" ON UNIT7013 AT TIME STEP    1, STRESS PERIOD   9
 UBDSV1 SAVING "FLOW RIGHT FACE " ON UNIT7013 AT TIME STEP    1, STRESS PERIOD   9
 UBDSV1 SAVING "FLOW FRONT FACE " ON UNIT7013 AT TIME STEP    1, STRESS PERIOD   9
 UBDSV1 SAVING "FLOW LOWER FACE " ON UNIT7013 AT TIME STEP    1, STRESS PERIOD   9
 UBDSV4 SAVING "  STREAM LEAKAGE" ON UNIT7013 AT TIME STEP    1, STRESS PERIOD   9



 UBDSV3 SAVING "FARM  NET  RECH." ON UNIT7013 AT TIME STEP    1, STRESS PERIOD   9
 UBDSV4 SAVING " GHOST-NODE HEAD" ON UNIT7013 AT TIME STEP    1, STRESS PERIOD   9
1
  FLUX ACROSS PARENT-CHILD INTERFACE AT TIME STEP  1 IN STRESS PERIOD    9
  ------------------------------------------------------------------------
 G-N FLUX        PARENT        CHILD         DIFFERENCE      % DIFFERENCE
  RATE IN:      1.7022E+03    1.7025E+03    -2.2791E-01       -0.0134
 RATE OUT:      2.7840E+03    2.7832E+03     7.4414E-01        0.0267
 
 SOLVING FOR HEAD 
     3 CALLS TO PCG ROUTINE FOR TIME STEP   2 IN STRESS PERIOD    9
    10 TOTAL ITERATIONS
     3 CALLS TO PCG ROUTINE FOR TIME STEP   2 IN STRESS PERIOD    9
    11 TOTAL ITERATIONS
     2 CALLS TO PCG ROUTINE FOR TIME STEP   2 IN STRESS PERIOD    9
     7 TOTAL ITERATIONS
     2 CALLS TO PCG ROUTINE FOR TIME STEP   2 IN STRESS PERIOD    9
     8 TOTAL ITERATIONS
     2 CALLS TO PCG ROUTINE FOR TIME STEP   2 IN STRESS PERIOD    9
     7 TOTAL ITERATIONS
     2 CALLS TO PCG ROUTINE FOR TIME STEP   2 IN STRESS PERIOD    9
     6 TOTAL ITERATIONS
     2 CALLS TO PCG ROUTINE FOR TIME STEP   2 IN STRESS PERIOD    9
     5 TOTAL ITERATIONS
     2 CALLS TO PCG ROUTINE FOR TIME STEP   2 IN STRESS PERIOD    9
     5 TOTAL ITERATIONS
     2 CALLS TO PCG ROUTINE FOR TIME STEP   2 IN STRESS PERIOD    9
     4 TOTAL ITERATIONS
     2 CALLS TO PCG ROUTINE FOR TIME STEP   2 IN STRESS PERIOD    9
     3 TOTAL ITERATIONS
     2 CALLS TO PCG ROUTINE FOR TIME STEP   2 IN STRESS PERIOD    9
     3 TOTAL ITERATIONS

 OUTPUT CONTROL FOR STRESS PERIOD      9   TIME STEP     2
    PRINT BUDGET
    SAVE HEAD FOR ALL LAYERS
    SAVE BUDGET
 UBDSV1 SAVING "         STORAGE" ON UNIT7013 AT TIME STEP    2, STRESS PERIOD   9
 UBDSV2 SAVING "   CONSTANT HEAD" ON UNIT7013 AT TIME STEP    2, STRESS PERIOD   9
 UBDSV1 SAVING "FLOW RIGHT FACE " ON UNIT7013 AT TIME STEP    2, STRESS PERIOD   9
 UBDSV1 SAVING "FLOW FRONT FACE " ON UNIT7013 AT TIME STEP    2, STRESS PERIOD   9
 UBDSV1 SAVING "FLOW LOWER FACE " ON UNIT7013 AT TIME STEP    2, STRESS PERIOD   9
 UBDSV4 SAVING "  STREAM LEAKAGE" ON UNIT7013 AT TIME STEP    2, STRESS PERIOD   9



 UBDSV3 SAVING "FARM  NET  RECH." ON UNIT7013 AT TIME STEP    2, STRESS PERIOD   9
 UBDSV4 SAVING " GHOST-NODE HEAD" ON UNIT7013 AT TIME STEP    2, STRESS PERIOD   9

 HEAD WILL BE SAVED ON UNIT 2213 AT END OF TIME STEP     2, STRESS PERIOD      9
1
  VOLUMETRIC BUDGET FOR ENTIRE MODEL AT END OF TIME STEP    2 IN STRESS PERIOD      9
  ------------------------------------------------------------------------------

     CUMULATIVE VOLUMES      L**3       RATES FOR THIS TIME STEP      L**3/T
     ------------------                 ------------------------

           IN:                                      IN:
           ---                                      ---
             STORAGE =      122100.8828               STORAGE =         179.6206
       CONSTANT HEAD =           0.0000         CONSTANT HEAD =           0.0000
      STREAM LEAKAGE =       79334.3281        STREAM LEAKAGE =         795.8369
          FARM WELLS =           0.0000            FARM WELLS =           0.0000
    FARM  NET  RECH. =      108281.5625      FARM  NET  RECH. =         713.9203
     GHOST-NODE HEAD =      708294.5000       GHOST-NODE HEAD =        1618.5197

            TOTAL IN =     1018011.2500              TOTAL IN =        3307.8975

          OUT:                                     OUT:
          ----                                     ----
             STORAGE =        9747.8018               STORAGE =       4.1016E-02
       CONSTANT HEAD =           0.0000         CONSTANT HEAD =           0.0000
      STREAM LEAKAGE =       96433.1719        STREAM LEAKAGE =           0.0000
          FARM WELLS =       15382.7432            FARM WELLS =         505.6786
    FARM  NET  RECH. =        3526.6760      FARM  NET  RECH. =           0.0000
     GHOST-NODE HEAD =      892919.5625       GHOST-NODE HEAD =        2802.1902

           TOTAL OUT =     1018009.9375             TOTAL OUT =        3307.9097

            IN - OUT =           1.3125              IN - OUT =      -1.2207E-02

 PERCENT DISCREPANCY =           0.00     PERCENT DISCREPANCY =          -0.00






          TIME SUMMARY AT END OF TIME STEP     2 IN STRESS PERIOD      9
                    SECONDS     MINUTES      HOURS       DAYS        YEARS
                    -----------------------------------------------------------
   TIME STEP LENGTH 1.31414E+06  21902.      365.04      15.210     4.16427E-02
 STRESS PERIOD TIME 2.62829E+06  43805.      730.08      30.420     8.32854E-02
         TOTAL TIME 2.36546E+07 3.94243E+05  6570.7      273.78     0.74957    
1
1
  FLUX ACROSS PARENT-CHILD INTERFACE AT TIME STEP  2 IN STRESS PERIOD    9
  ------------------------------------------------------------------------
 G-N FLUX        PARENT        CHILD         DIFFERENCE      % DIFFERENCE
  RATE IN:      1.6183E+03    1.6185E+03    -1.6980E-01       -0.0105
 RATE OUT:      2.8031E+03    2.8022E+03     8.8037E-01        0.0314
1
                            STRESS PERIOD NO.     10, LENGTH =   30.42000    
                            -----------------------------------------------

                              NUMBER OF TIME STEPS =     2

                               MULTIPLIER FOR DELT =     1.000

                            INITIAL TIME STEP SIZE =   15.21000    

 REUSING STREAM SEGMENT DATA FROM LAST STRESS PERIOD

 Parameter:  WELLS1
 WELL NO. LAYER    ROW    COL  F-WELL ID    FARM ID         QMAX         QMAXRESET       LGRGRID         
 --------------------------------------------------------------------------------------------------------
       1      1      2      2          5          2      2.0000E+03              0              0
       2      1      5      5          6          2      1.0000E+03              0              0

 NUMBER OF ACTIVE FARM WELLS:        2

 FARM-ID  NUMBER OF WELLS PER FARM  TOTAL MAX.CAPACITY PER FARM
       1                         0                       0.0000
       2                         2                    3000.0000
       3                         0                       0.0000
       4                         0                       0.0000
       5                         0                       0.0000
       6                         0                       0.0000
       7                         0                       0.0000
       8                         0                       0.0000

Transpiratory and Evaporative Fractions of Crop Consumptive Use
    % Transpiration % Evap. for Precip. % Evap. for Irrig.
    3          0.894          0.106          0.106
    5          0.927          0.073          0.000

FRACTIONS OF IN-EFFICIENT LOSSES TO SW-RUNOFF FROM 
     PRECIPITATION:  IRRIGATION:
    3          0.600          0.500
    5          0.500          0.000
 
 SOLVING FOR HEAD 


     3 CALLS TO PCG ROUTINE FOR TIME STEP   1 IN STRESS PERIOD   10
    12 TOTAL ITERATIONS


     3 CALLS TO PCG ROUTINE FOR TIME STEP   1 IN STRESS PERIOD   10
    10 TOTAL ITERATIONS


     2 CALLS TO PCG ROUTINE FOR TIME STEP   1 IN STRESS PERIOD   10
     8 TOTAL ITERATIONS


     2 CALLS TO PCG ROUTINE FOR TIME STEP   1 IN STRESS PERIOD   10
     8 TOTAL ITERATIONS


     2 CALLS TO PCG ROUTINE FOR TIME STEP   1 IN STRESS PERIOD   10
     7 TOTAL ITERATIONS


     2 CALLS TO PCG ROUTINE FOR TIME STEP   1 IN STRESS PERIOD   10
     6 TOTAL ITERATIONS


     2 CALLS TO PCG ROUTINE FOR TIME STEP   1 IN STRESS PERIOD   10
     5 TOTAL ITERATIONS


     2 CALLS TO PCG ROUTINE FOR TIME STEP   1 IN STRESS PERIOD   10
     5 TOTAL ITERATIONS


     2 CALLS TO PCG ROUTINE FOR TIME STEP   1 IN STRESS PERIOD   10
     4 TOTAL ITERATIONS


     2 CALLS TO PCG ROUTINE FOR TIME STEP   1 IN STRESS PERIOD   10
     3 TOTAL ITERATIONS


     2 CALLS TO PCG ROUTINE FOR TIME STEP   1 IN STRESS PERIOD   10
     3 TOTAL ITERATIONS

 OUTPUT CONTROL FOR STRESS PERIOD     10   TIME STEP     1
    SAVE BUDGET
 UBDSV1 SAVING "         STORAGE" ON UNIT7013 AT TIME STEP    1, STRESS PERIOD  10
 UBDSV2 SAVING "   CONSTANT HEAD" ON UNIT7013 AT TIME STEP    1, STRESS PERIOD  10
 UBDSV1 SAVING "FLOW RIGHT FACE " ON UNIT7013 AT TIME STEP    1, STRESS PERIOD  10
 UBDSV1 SAVING "FLOW FRONT FACE " ON UNIT7013 AT TIME STEP    1, STRESS PERIOD  10
 UBDSV1 SAVING "FLOW LOWER FACE " ON UNIT7013 AT TIME STEP    1, STRESS PERIOD  10
 UBDSV4 SAVING "  STREAM LEAKAGE" ON UNIT7013 AT TIME STEP    1, STRESS PERIOD  10



 UBDSV3 SAVING "FARM  NET  RECH." ON UNIT7013 AT TIME STEP    1, STRESS PERIOD  10
 UBDSV4 SAVING " GHOST-NODE HEAD" ON UNIT7013 AT TIME STEP    1, STRESS PERIOD  10
1
  FLUX ACROSS PARENT-CHILD INTERFACE AT TIME STEP  1 IN STRESS PERIOD   10
  ------------------------------------------------------------------------
 G-N FLUX        PARENT        CHILD         DIFFERENCE      % DIFFERENCE
  RATE IN:      1.6415E+03    1.6416E+03    -6.1768E-02       -0.0038
 RATE OUT:      2.8294E+03    2.8287E+03     6.1914E-01        0.0219
 
 SOLVING FOR HEAD 
     3 CALLS TO PCG ROUTINE FOR TIME STEP   2 IN STRESS PERIOD   10
    10 TOTAL ITERATIONS
     3 CALLS TO PCG ROUTINE FOR TIME STEP   2 IN STRESS PERIOD   10
    10 TOTAL ITERATIONS
     2 CALLS TO PCG ROUTINE FOR TIME STEP   2 IN STRESS PERIOD   10
     7 TOTAL ITERATIONS
     2 CALLS TO PCG ROUTINE FOR TIME STEP   2 IN STRESS PERIOD   10
     7 TOTAL ITERATIONS
     2 CALLS TO PCG ROUTINE FOR TIME STEP   2 IN STRESS PERIOD   10
     7 TOTAL ITERATIONS
     2 CALLS TO PCG ROUTINE FOR TIME STEP   2 IN STRESS PERIOD   10
     6 TOTAL ITERATIONS
     2 CALLS TO PCG ROUTINE FOR TIME STEP   2 IN STRESS PERIOD   10
     5 TOTAL ITERATIONS
     2 CALLS TO PCG ROUTINE FOR TIME STEP   2 IN STRESS PERIOD   10
     5 TOTAL ITERATIONS
     2 CALLS TO PCG ROUTINE FOR TIME STEP   2 IN STRESS PERIOD   10
     4 TOTAL ITERATIONS
     2 CALLS TO PCG ROUTINE FOR TIME STEP   2 IN STRESS PERIOD   10
     3 TOTAL ITERATIONS
     2 CALLS TO PCG ROUTINE FOR TIME STEP   2 IN STRESS PERIOD   10
     3 TOTAL ITERATIONS

 OUTPUT CONTROL FOR STRESS PERIOD     10   TIME STEP     2
    SAVE HEAD FOR ALL LAYERS
    SAVE BUDGET
 UBDSV1 SAVING "         STORAGE" ON UNIT7013 AT TIME STEP    2, STRESS PERIOD  10
 UBDSV2 SAVING "   CONSTANT HEAD" ON UNIT7013 AT TIME STEP    2, STRESS PERIOD  10
 UBDSV1 SAVING "FLOW RIGHT FACE " ON UNIT7013 AT TIME STEP    2, STRESS PERIOD  10
 UBDSV1 SAVING "FLOW FRONT FACE " ON UNIT7013 AT TIME STEP    2, STRESS PERIOD  10
 UBDSV1 SAVING "FLOW LOWER FACE " ON UNIT7013 AT TIME STEP    2, STRESS PERIOD  10
 UBDSV4 SAVING "  STREAM LEAKAGE" ON UNIT7013 AT TIME STEP    2, STRESS PERIOD  10



 UBDSV3 SAVING "FARM  NET  RECH." ON UNIT7013 AT TIME STEP    2, STRESS PERIOD  10
 UBDSV4 SAVING " GHOST-NODE HEAD" ON UNIT7013 AT TIME STEP    2, STRESS PERIOD  10

 HEAD WILL BE SAVED ON UNIT 2213 AT END OF TIME STEP     2, STRESS PERIOD     10
1
  VOLUMETRIC BUDGET FOR ENTIRE MODEL AT END OF TIME STEP    2 IN STRESS PERIOD     10
  ------------------------------------------------------------------------------

     CUMULATIVE VOLUMES      L**3       RATES FOR THIS TIME STEP      L**3/T
     ------------------                 ------------------------

           IN:                                      IN:
           ---                                      ---
             STORAGE =      124905.6953               STORAGE =          83.1457
       CONSTANT HEAD =           0.0000         CONSTANT HEAD =           0.0000
      STREAM LEAKAGE =      101074.7656        STREAM LEAKAGE =         708.5914
          FARM WELLS =           0.0000            FARM WELLS =           0.0000
    FARM  NET  RECH. =      152488.7188      FARM  NET  RECH. =        1453.2269
     GHOST-NODE HEAD =      757749.9375       GHOST-NODE HEAD =        1609.8994

            TOTAL IN =     1136219.1250              TOTAL IN =        3854.8635

          OUT:                                     OUT:
          ----                                     ----
             STORAGE =       11390.7490               STORAGE =           7.7725
       CONSTANT HEAD =           0.0000         CONSTANT HEAD =           0.0000
      STREAM LEAKAGE =       96433.1719        STREAM LEAKAGE =           0.0000
          FARM WELLS =       45434.2578            FARM WELLS =         987.8868
    FARM  NET  RECH. =        3526.6760      FARM  NET  RECH. =           0.0000
     GHOST-NODE HEAD =      979433.3750       GHOST-NODE HEAD =        2859.2134

           TOTAL OUT =     1136218.2500             TOTAL OUT =        3854.8726

            IN - OUT =           0.8750              IN - OUT =      -9.0332E-03

 PERCENT DISCREPANCY =           0.00     PERCENT DISCREPANCY =          -0.00






          TIME SUMMARY AT END OF TIME STEP     2 IN STRESS PERIOD     10
                    SECONDS     MINUTES      HOURS       DAYS        YEARS
                    -----------------------------------------------------------
   TIME STEP LENGTH 1.31414E+06  21902.      365.04      15.210     4.16427E-02
 STRESS PERIOD TIME 2.62829E+06  43805.      730.08      30.420     8.32854E-02
         TOTAL TIME 2.62829E+07 4.38048E+05  7300.8      304.20     0.83285    
1
1
  FLUX ACROSS PARENT-CHILD INTERFACE AT TIME STEP  2 IN STRESS PERIOD   10
  ------------------------------------------------------------------------
 G-N FLUX        PARENT        CHILD         DIFFERENCE      % DIFFERENCE
  RATE IN:      1.6098E+03    1.6099E+03    -1.1780E-01       -0.0073
 RATE OUT:      2.8598E+03    2.8592E+03     5.3931E-01        0.0189
1
                            STRESS PERIOD NO.     11, LENGTH =   30.42000    
                            -----------------------------------------------

                              NUMBER OF TIME STEPS =     2

                               MULTIPLIER FOR DELT =     1.000

                            INITIAL TIME STEP SIZE =   15.21000    

 REUSING STREAM SEGMENT DATA FROM LAST STRESS PERIOD

 Parameter:  WELLS1
 WELL NO. LAYER    ROW    COL  F-WELL ID    FARM ID         QMAX         QMAXRESET       LGRGRID         
 --------------------------------------------------------------------------------------------------------
       1      1      2      2          5          2      2.0000E+03              0              0
       2      1      5      5          6          2      1.0000E+03              0              0

 NUMBER OF ACTIVE FARM WELLS:        2

 FARM-ID  NUMBER OF WELLS PER FARM  TOTAL MAX.CAPACITY PER FARM
       1                         0                       0.0000
       2                         2                    3000.0000
       3                         0                       0.0000
       4                         0                       0.0000
       5                         0                       0.0000
       6                         0                       0.0000
       7                         0                       0.0000
       8                         0                       0.0000

Transpiratory and Evaporative Fractions of Crop Consumptive Use
    % Transpiration % Evap. for Precip. % Evap. for Irrig.
    3          0.954          0.046          0.046
    5          0.927          0.073          0.000

FRACTIONS OF IN-EFFICIENT LOSSES TO SW-RUNOFF FROM 
     PRECIPITATION:  IRRIGATION:
    3          0.600          0.500
    5          0.500          0.000
 
 SOLVING FOR HEAD 


     3 CALLS TO PCG ROUTINE FOR TIME STEP   1 IN STRESS PERIOD   11
    14 TOTAL ITERATIONS


     2 CALLS TO PCG ROUTINE FOR TIME STEP   1 IN STRESS PERIOD   11
     8 TOTAL ITERATIONS


     3 CALLS TO PCG ROUTINE FOR TIME STEP   1 IN STRESS PERIOD   11
    10 TOTAL ITERATIONS


     2 CALLS TO PCG ROUTINE FOR TIME STEP   1 IN STRESS PERIOD   11
     8 TOTAL ITERATIONS


     2 CALLS TO PCG ROUTINE FOR TIME STEP   1 IN STRESS PERIOD   11
     7 TOTAL ITERATIONS


     2 CALLS TO PCG ROUTINE FOR TIME STEP   1 IN STRESS PERIOD   11
     5 TOTAL ITERATIONS


     2 CALLS TO PCG ROUTINE FOR TIME STEP   1 IN STRESS PERIOD   11
     6 TOTAL ITERATIONS


     2 CALLS TO PCG ROUTINE FOR TIME STEP   1 IN STRESS PERIOD   11
     5 TOTAL ITERATIONS


     2 CALLS TO PCG ROUTINE FOR TIME STEP   1 IN STRESS PERIOD   11
     4 TOTAL ITERATIONS


     2 CALLS TO PCG ROUTINE FOR TIME STEP   1 IN STRESS PERIOD   11
     3 TOTAL ITERATIONS


     2 CALLS TO PCG ROUTINE FOR TIME STEP   1 IN STRESS PERIOD   11
     3 TOTAL ITERATIONS

 OUTPUT CONTROL FOR STRESS PERIOD     11   TIME STEP     1
    SAVE BUDGET
 UBDSV1 SAVING "         STORAGE" ON UNIT7013 AT TIME STEP    1, STRESS PERIOD  11
 UBDSV2 SAVING "   CONSTANT HEAD" ON UNIT7013 AT TIME STEP    1, STRESS PERIOD  11
 UBDSV1 SAVING "FLOW RIGHT FACE " ON UNIT7013 AT TIME STEP    1, STRESS PERIOD  11
 UBDSV1 SAVING "FLOW FRONT FACE " ON UNIT7013 AT TIME STEP    1, STRESS PERIOD  11
 UBDSV1 SAVING "FLOW LOWER FACE " ON UNIT7013 AT TIME STEP    1, STRESS PERIOD  11
 UBDSV4 SAVING "  STREAM LEAKAGE" ON UNIT7013 AT TIME STEP    1, STRESS PERIOD  11



 UBDSV3 SAVING "FARM  NET  RECH." ON UNIT7013 AT TIME STEP    1, STRESS PERIOD  11
 UBDSV4 SAVING " GHOST-NODE HEAD" ON UNIT7013 AT TIME STEP    1, STRESS PERIOD  11
1
  FLUX ACROSS PARENT-CHILD INTERFACE AT TIME STEP  1 IN STRESS PERIOD   11
  ------------------------------------------------------------------------
 G-N FLUX        PARENT        CHILD         DIFFERENCE      % DIFFERENCE
  RATE IN:      2.0726E+03    2.0721E+03     4.5215E-01        0.0218
 RATE OUT:      2.9702E+03    2.9702E+03     3.1738E-02        0.0011
 
 SOLVING FOR HEAD 
     3 CALLS TO PCG ROUTINE FOR TIME STEP   2 IN STRESS PERIOD   11
    10 TOTAL ITERATIONS
     2 CALLS TO PCG ROUTINE FOR TIME STEP   2 IN STRESS PERIOD   11
     7 TOTAL ITERATIONS
     2 CALLS TO PCG ROUTINE FOR TIME STEP   2 IN STRESS PERIOD   11
     7 TOTAL ITERATIONS
     2 CALLS TO PCG ROUTINE FOR TIME STEP   2 IN STRESS PERIOD   11
     6 TOTAL ITERATIONS
     2 CALLS TO PCG ROUTINE FOR TIME STEP   2 IN STRESS PERIOD   11
     5 TOTAL ITERATIONS
     2 CALLS TO PCG ROUTINE FOR TIME STEP   2 IN STRESS PERIOD   11
     5 TOTAL ITERATIONS
     2 CALLS TO PCG ROUTINE FOR TIME STEP   2 IN STRESS PERIOD   11
     4 TOTAL ITERATIONS
     2 CALLS TO PCG ROUTINE FOR TIME STEP   2 IN STRESS PERIOD   11
     4 TOTAL ITERATIONS
     2 CALLS TO PCG ROUTINE FOR TIME STEP   2 IN STRESS PERIOD   11
     3 TOTAL ITERATIONS
     2 CALLS TO PCG ROUTINE FOR TIME STEP   2 IN STRESS PERIOD   11
     3 TOTAL ITERATIONS

 OUTPUT CONTROL FOR STRESS PERIOD     11   TIME STEP     2
    SAVE BUDGET
 UBDSV1 SAVING "         STORAGE" ON UNIT7013 AT TIME STEP    2, STRESS PERIOD  11
 UBDSV2 SAVING "   CONSTANT HEAD" ON UNIT7013 AT TIME STEP    2, STRESS PERIOD  11
 UBDSV1 SAVING "FLOW RIGHT FACE " ON UNIT7013 AT TIME STEP    2, STRESS PERIOD  11
 UBDSV1 SAVING "FLOW FRONT FACE " ON UNIT7013 AT TIME STEP    2, STRESS PERIOD  11
 UBDSV1 SAVING "FLOW LOWER FACE " ON UNIT7013 AT TIME STEP    2, STRESS PERIOD  11
 UBDSV4 SAVING "  STREAM LEAKAGE" ON UNIT7013 AT TIME STEP    2, STRESS PERIOD  11



 UBDSV3 SAVING "FARM  NET  RECH." ON UNIT7013 AT TIME STEP    2, STRESS PERIOD  11
 UBDSV4 SAVING " GHOST-NODE HEAD" ON UNIT7013 AT TIME STEP    2, STRESS PERIOD  11
1
  VOLUMETRIC BUDGET FOR ENTIRE MODEL AT END OF TIME STEP    2 IN STRESS PERIOD     11
  ------------------------------------------------------------------------------

     CUMULATIVE VOLUMES      L**3       RATES FOR THIS TIME STEP      L**3/T
     ------------------                 ------------------------

           IN:                                      IN:
           ---                                      ---
             STORAGE =      126052.2031               STORAGE =           0.0000
       CONSTANT HEAD =           0.0000         CONSTANT HEAD =           0.0000
      STREAM LEAKAGE =      123829.2344        STREAM LEAKAGE =         725.0874
          FARM WELLS =           0.0000            FARM WELLS =           0.0000
    FARM  NET  RECH. =      158996.6250      FARM  NET  RECH. =         213.9350
     GHOST-NODE HEAD =      824136.3750       GHOST-NODE HEAD =        2292.5439

            TOTAL IN =     1233014.5000              TOTAL IN =        3231.5664

          OUT:                                     OUT:
          ----                                     ----
             STORAGE =       16788.7402               STORAGE =         192.6733
       CONSTANT HEAD =           0.0000         CONSTANT HEAD =           0.0000
      STREAM LEAKAGE =       96433.1719        STREAM LEAKAGE =           0.0000
          FARM WELLS =       45434.2578            FARM WELLS =           0.0000
    FARM  NET  RECH. =        3526.6760      FARM  NET  RECH. =           0.0000
     GHOST-NODE HEAD =     1070831.3750       GHOST-NODE HEAD =        3038.9099

           TOTAL OUT =     1233014.2500             TOTAL OUT =        3231.5833

            IN - OUT =           0.2500              IN - OUT =      -1.6846E-02

 PERCENT DISCREPANCY =           0.00     PERCENT DISCREPANCY =          -0.00






          TIME SUMMARY AT END OF TIME STEP     2 IN STRESS PERIOD     11
                    SECONDS     MINUTES      HOURS       DAYS        YEARS
                    -----------------------------------------------------------
   TIME STEP LENGTH 1.31414E+06  21902.      365.04      15.210     4.16427E-02
 STRESS PERIOD TIME 2.62829E+06  43805.      730.08      30.420     8.32854E-02
         TOTAL TIME 2.89112E+07 4.81853E+05  8030.9      334.62     0.91614    
1
1
  FLUX ACROSS PARENT-CHILD INTERFACE AT TIME STEP  2 IN STRESS PERIOD   11
  ------------------------------------------------------------------------
 G-N FLUX        PARENT        CHILD         DIFFERENCE      % DIFFERENCE
  RATE IN:      2.2930E+03    2.2925E+03     4.3384E-01        0.0189
 RATE OUT:      3.0393E+03    3.0389E+03     4.3872E-01        0.0144
1
                            STRESS PERIOD NO.     12, LENGTH =   30.42000    
                            -----------------------------------------------

                              NUMBER OF TIME STEPS =     2

                               MULTIPLIER FOR DELT =     1.000

                            INITIAL TIME STEP SIZE =   15.21000    

 REUSING STREAM SEGMENT DATA FROM LAST STRESS PERIOD

 Parameter:  WELLS1
 WELL NO. LAYER    ROW    COL  F-WELL ID    FARM ID         QMAX         QMAXRESET       LGRGRID         
 --------------------------------------------------------------------------------------------------------
       1      1      2      2          5          2      2.0000E+03              0              0
       2      1      5      5          6          2      1.0000E+03              0              0

 NUMBER OF ACTIVE FARM WELLS:        2

 FARM-ID  NUMBER OF WELLS PER FARM  TOTAL MAX.CAPACITY PER FARM
       1                         0                       0.0000
       2                         2                    3000.0000
       3                         0                       0.0000
       4                         0                       0.0000
       5                         0                       0.0000
       6                         0                       0.0000
       7                         0                       0.0000
       8                         0                       0.0000

Transpiratory and Evaporative Fractions of Crop Consumptive Use
    % Transpiration % Evap. for Precip. % Evap. for Irrig.
    3          0.957          0.043          0.043
    5          0.926          0.074          0.000

FRACTIONS OF IN-EFFICIENT LOSSES TO SW-RUNOFF FROM 
     PRECIPITATION:  IRRIGATION:
    3          0.600          0.500
    5          0.830          0.000
 
 SOLVING FOR HEAD 


     3 CALLS TO PCG ROUTINE FOR TIME STEP   1 IN STRESS PERIOD   12
    12 TOTAL ITERATIONS


     3 CALLS TO PCG ROUTINE FOR TIME STEP   1 IN STRESS PERIOD   12
    10 TOTAL ITERATIONS


     2 CALLS TO PCG ROUTINE FOR TIME STEP   1 IN STRESS PERIOD   12
     7 TOTAL ITERATIONS


     2 CALLS TO PCG ROUTINE FOR TIME STEP   1 IN STRESS PERIOD   12
     7 TOTAL ITERATIONS


     2 CALLS TO PCG ROUTINE FOR TIME STEP   1 IN STRESS PERIOD   12
     5 TOTAL ITERATIONS


     2 CALLS TO PCG ROUTINE FOR TIME STEP   1 IN STRESS PERIOD   12
     5 TOTAL ITERATIONS


     2 CALLS TO PCG ROUTINE FOR TIME STEP   1 IN STRESS PERIOD   12
     4 TOTAL ITERATIONS


     2 CALLS TO PCG ROUTINE FOR TIME STEP   1 IN STRESS PERIOD   12
     4 TOTAL ITERATIONS


     2 CALLS TO PCG ROUTINE FOR TIME STEP   1 IN STRESS PERIOD   12
     4 TOTAL ITERATIONS


     2 CALLS TO PCG ROUTINE FOR TIME STEP   1 IN STRESS PERIOD   12
     3 TOTAL ITERATIONS


     2 CALLS TO PCG ROUTINE FOR TIME STEP   1 IN STRESS PERIOD   12
     3 TOTAL ITERATIONS

 OUTPUT CONTROL FOR STRESS PERIOD     12   TIME STEP     1
    SAVE BUDGET
 UBDSV1 SAVING "         STORAGE" ON UNIT7013 AT TIME STEP    1, STRESS PERIOD  12
 UBDSV2 SAVING "   CONSTANT HEAD" ON UNIT7013 AT TIME STEP    1, STRESS PERIOD  12
 UBDSV1 SAVING "FLOW RIGHT FACE " ON UNIT7013 AT TIME STEP    1, STRESS PERIOD  12
 UBDSV1 SAVING "FLOW FRONT FACE " ON UNIT7013 AT TIME STEP    1, STRESS PERIOD  12
 UBDSV1 SAVING "FLOW LOWER FACE " ON UNIT7013 AT TIME STEP    1, STRESS PERIOD  12
 UBDSV4 SAVING "  STREAM LEAKAGE" ON UNIT7013 AT TIME STEP    1, STRESS PERIOD  12



 UBDSV3 SAVING "FARM  NET  RECH." ON UNIT7013 AT TIME STEP    1, STRESS PERIOD  12
 UBDSV4 SAVING " GHOST-NODE HEAD" ON UNIT7013 AT TIME STEP    1, STRESS PERIOD  12
1
  FLUX ACROSS PARENT-CHILD INTERFACE AT TIME STEP  1 IN STRESS PERIOD   12
  ------------------------------------------------------------------------
 G-N FLUX        PARENT        CHILD         DIFFERENCE      % DIFFERENCE
  RATE IN:      2.5061E+03    2.5058E+03     3.8843E-01        0.0155
 RATE OUT:      3.1108E+03    3.1108E+03    -1.1475E-02       -0.0004
 
 SOLVING FOR HEAD 
     3 CALLS TO PCG ROUTINE FOR TIME STEP   2 IN STRESS PERIOD   12
    10 TOTAL ITERATIONS
     3 CALLS TO PCG ROUTINE FOR TIME STEP   2 IN STRESS PERIOD   12
    10 TOTAL ITERATIONS
     2 CALLS TO PCG ROUTINE FOR TIME STEP   2 IN STRESS PERIOD   12
     7 TOTAL ITERATIONS
     2 CALLS TO PCG ROUTINE FOR TIME STEP   2 IN STRESS PERIOD   12
     7 TOTAL ITERATIONS
     2 CALLS TO PCG ROUTINE FOR TIME STEP   2 IN STRESS PERIOD   12
     5 TOTAL ITERATIONS
     2 CALLS TO PCG ROUTINE FOR TIME STEP   2 IN STRESS PERIOD   12
     5 TOTAL ITERATIONS
     2 CALLS TO PCG ROUTINE FOR TIME STEP   2 IN STRESS PERIOD   12
     4 TOTAL ITERATIONS
     2 CALLS TO PCG ROUTINE FOR TIME STEP   2 IN STRESS PERIOD   12
     4 TOTAL ITERATIONS
     2 CALLS TO PCG ROUTINE FOR TIME STEP   2 IN STRESS PERIOD   12
     4 TOTAL ITERATIONS
     2 CALLS TO PCG ROUTINE FOR TIME STEP   2 IN STRESS PERIOD   12
     3 TOTAL ITERATIONS

 OUTPUT CONTROL FOR STRESS PERIOD     12   TIME STEP     2
    PRINT BUDGET
    SAVE HEAD FOR ALL LAYERS
    SAVE BUDGET
 UBDSV1 SAVING "         STORAGE" ON UNIT7013 AT TIME STEP    2, STRESS PERIOD  12
 UBDSV2 SAVING "   CONSTANT HEAD" ON UNIT7013 AT TIME STEP    2, STRESS PERIOD  12
 UBDSV1 SAVING "FLOW RIGHT FACE " ON UNIT7013 AT TIME STEP    2, STRESS PERIOD  12
 UBDSV1 SAVING "FLOW FRONT FACE " ON UNIT7013 AT TIME STEP    2, STRESS PERIOD  12
 UBDSV1 SAVING "FLOW LOWER FACE " ON UNIT7013 AT TIME STEP    2, STRESS PERIOD  12
 UBDSV4 SAVING "  STREAM LEAKAGE" ON UNIT7013 AT TIME STEP    2, STRESS PERIOD  12



 UBDSV3 SAVING "FARM  NET  RECH." ON UNIT7013 AT TIME STEP    2, STRESS PERIOD  12
 UBDSV4 SAVING " GHOST-NODE HEAD" ON UNIT7013 AT TIME STEP    2, STRESS PERIOD  12

 HEAD WILL BE SAVED ON UNIT 2213 AT END OF TIME STEP     2, STRESS PERIOD     12
1
  VOLUMETRIC BUDGET FOR ENTIRE MODEL AT END OF TIME STEP    2 IN STRESS PERIOD     12
  ------------------------------------------------------------------------------

     CUMULATIVE VOLUMES      L**3       RATES FOR THIS TIME STEP      L**3/T
     ------------------                 ------------------------

           IN:                                      IN:
           ---                                      ---
             STORAGE =      126052.2031               STORAGE =           0.0000
       CONSTANT HEAD =           0.0000         CONSTANT HEAD =           0.0000
      STREAM LEAKAGE =      135963.2812        STREAM LEAKAGE =         296.6773
          FARM WELLS =           0.0000            FARM WELLS =           0.0000
    FARM  NET  RECH. =      182766.9062      FARM  NET  RECH. =         781.2187
     GHOST-NODE HEAD =      903072.9375       GHOST-NODE HEAD =        2684.0259

            TOTAL IN =     1347855.2500              TOTAL IN =        3761.9219

          OUT:                                     OUT:
          ----                                     ----
             STORAGE =       36139.5547               STORAGE =         594.5990
       CONSTANT HEAD =           0.0000         CONSTANT HEAD =           0.0000
      STREAM LEAKAGE =       96433.1719        STREAM LEAKAGE =           0.0000
          FARM WELLS =       45434.2578            FARM WELLS =           0.0000
    FARM  NET  RECH. =        3526.6760      FARM  NET  RECH. =           0.0000
     GHOST-NODE HEAD =     1166322.2500       GHOST-NODE HEAD =        3167.3350

           TOTAL OUT =     1347855.8750             TOTAL OUT =        3761.9341

            IN - OUT =          -0.6250              IN - OUT =      -1.2207E-02

 PERCENT DISCREPANCY =          -0.00     PERCENT DISCREPANCY =          -0.00






          TIME SUMMARY AT END OF TIME STEP     2 IN STRESS PERIOD     12
                    SECONDS     MINUTES      HOURS       DAYS        YEARS
                    -----------------------------------------------------------
   TIME STEP LENGTH 1.31414E+06  21902.      365.04      15.210     4.16427E-02
 STRESS PERIOD TIME 2.62829E+06  43805.      730.08      30.420     8.32854E-02
         TOTAL TIME 3.15395E+07 5.25658E+05  8761.0      365.04     0.99942    
1
1
  FLUX ACROSS PARENT-CHILD INTERFACE AT TIME STEP  2 IN STRESS PERIOD   12
  ------------------------------------------------------------------------
 G-N FLUX        PARENT        CHILD         DIFFERENCE      % DIFFERENCE
  RATE IN:      2.6845E+03    2.6840E+03     4.2554E-01        0.0159
 RATE OUT:      3.1677E+03    3.1673E+03     3.3521E-01        0.0106
1
                            STRESS PERIOD NO.     13, LENGTH =   30.42000    
                            -----------------------------------------------

                              NUMBER OF TIME STEPS =     2

                               MULTIPLIER FOR DELT =     1.000

                            INITIAL TIME STEP SIZE =   15.21000    

 REUSING STREAM SEGMENT DATA FROM LAST STRESS PERIOD

 Parameter:  WELLS1
 WELL NO. LAYER    ROW    COL  F-WELL ID    FARM ID         QMAX         QMAXRESET       LGRGRID         
 --------------------------------------------------------------------------------------------------------
       1      1      2      2          5          2      2.0000E+03              0              0
       2      1      5      5          6          2      1.0000E+03              0              0

 NUMBER OF ACTIVE FARM WELLS:        2

 FARM-ID  NUMBER OF WELLS PER FARM  TOTAL MAX.CAPACITY PER FARM
       1                         0                       0.0000
       2                         2                    3000.0000
       3                         0                       0.0000
       4                         0                       0.0000
       5                         0                       0.0000
       6                         0                       0.0000
       7                         0                       0.0000
       8                         0                       0.0000

Transpiratory and Evaporative Fractions of Crop Consumptive Use
    % Transpiration % Evap. for Precip. % Evap. for Irrig.
    3          0.957          0.043          0.043
    5          0.777          0.223          0.000

FRACTIONS OF IN-EFFICIENT LOSSES TO SW-RUNOFF FROM 
     PRECIPITATION:  IRRIGATION:
    3          0.600          0.500
    5          0.840          0.000
 
 SOLVING FOR HEAD 


     3 CALLS TO PCG ROUTINE FOR TIME STEP   1 IN STRESS PERIOD   13
    10 TOTAL ITERATIONS


     2 CALLS TO PCG ROUTINE FOR TIME STEP   1 IN STRESS PERIOD   13
     8 TOTAL ITERATIONS


     2 CALLS TO PCG ROUTINE FOR TIME STEP   1 IN STRESS PERIOD   13
     7 TOTAL ITERATIONS


     2 CALLS TO PCG ROUTINE FOR TIME STEP   1 IN STRESS PERIOD   13
     6 TOTAL ITERATIONS


     2 CALLS TO PCG ROUTINE FOR TIME STEP   1 IN STRESS PERIOD   13
     6 TOTAL ITERATIONS


     2 CALLS TO PCG ROUTINE FOR TIME STEP   1 IN STRESS PERIOD   13
     5 TOTAL ITERATIONS


     2 CALLS TO PCG ROUTINE FOR TIME STEP   1 IN STRESS PERIOD   13
     4 TOTAL ITERATIONS


     2 CALLS TO PCG ROUTINE FOR TIME STEP   1 IN STRESS PERIOD   13
     4 TOTAL ITERATIONS


     2 CALLS TO PCG ROUTINE FOR TIME STEP   1 IN STRESS PERIOD   13
     4 TOTAL ITERATIONS


     2 CALLS TO PCG ROUTINE FOR TIME STEP   1 IN STRESS PERIOD   13
     3 TOTAL ITERATIONS

 OUTPUT CONTROL FOR STRESS PERIOD     13   TIME STEP     1
    SAVE BUDGET
 UBDSV1 SAVING "         STORAGE" ON UNIT7013 AT TIME STEP    1, STRESS PERIOD  13
 UBDSV2 SAVING "   CONSTANT HEAD" ON UNIT7013 AT TIME STEP    1, STRESS PERIOD  13
 UBDSV1 SAVING "FLOW RIGHT FACE " ON UNIT7013 AT TIME STEP    1, STRESS PERIOD  13
 UBDSV1 SAVING "FLOW FRONT FACE " ON UNIT7013 AT TIME STEP    1, STRESS PERIOD  13
 UBDSV1 SAVING "FLOW LOWER FACE " ON UNIT7013 AT TIME STEP    1, STRESS PERIOD  13
 UBDSV4 SAVING "  STREAM LEAKAGE" ON UNIT7013 AT TIME STEP    1, STRESS PERIOD  13



 UBDSV3 SAVING "FARM  NET  RECH." ON UNIT7013 AT TIME STEP    1, STRESS PERIOD  13
 UBDSV4 SAVING " GHOST-NODE HEAD" ON UNIT7013 AT TIME STEP    1, STRESS PERIOD  13
1
  FLUX ACROSS PARENT-CHILD INTERFACE AT TIME STEP  1 IN STRESS PERIOD   13
  ------------------------------------------------------------------------
 G-N FLUX        PARENT        CHILD         DIFFERENCE      % DIFFERENCE
  RATE IN:      2.7873E+03    2.7869E+03     3.4082E-01        0.0122
 RATE OUT:      3.2012E+03    3.2010E+03     1.9971E-01        0.0062
 
 SOLVING FOR HEAD 
     3 CALLS TO PCG ROUTINE FOR TIME STEP   2 IN STRESS PERIOD   13
    10 TOTAL ITERATIONS
     2 CALLS TO PCG ROUTINE FOR TIME STEP   2 IN STRESS PERIOD   13
     8 TOTAL ITERATIONS
     2 CALLS TO PCG ROUTINE FOR TIME STEP   2 IN STRESS PERIOD   13
     7 TOTAL ITERATIONS
     2 CALLS TO PCG ROUTINE FOR TIME STEP   2 IN STRESS PERIOD   13
     6 TOTAL ITERATIONS
     2 CALLS TO PCG ROUTINE FOR TIME STEP   2 IN STRESS PERIOD   13
     6 TOTAL ITERATIONS
     2 CALLS TO PCG ROUTINE FOR TIME STEP   2 IN STRESS PERIOD   13
     5 TOTAL ITERATIONS
     2 CALLS TO PCG ROUTINE FOR TIME STEP   2 IN STRESS PERIOD   13
     4 TOTAL ITERATIONS
     2 CALLS TO PCG ROUTINE FOR TIME STEP   2 IN STRESS PERIOD   13
     4 TOTAL ITERATIONS
     2 CALLS TO PCG ROUTINE FOR TIME STEP   2 IN STRESS PERIOD   13
     4 TOTAL ITERATIONS
     2 CALLS TO PCG ROUTINE FOR TIME STEP   2 IN STRESS PERIOD   13
     3 TOTAL ITERATIONS

 OUTPUT CONTROL FOR STRESS PERIOD     13   TIME STEP     2
    SAVE BUDGET
 UBDSV1 SAVING "         STORAGE" ON UNIT7013 AT TIME STEP    2, STRESS PERIOD  13
 UBDSV2 SAVING "   CONSTANT HEAD" ON UNIT7013 AT TIME STEP    2, STRESS PERIOD  13
 UBDSV1 SAVING "FLOW RIGHT FACE " ON UNIT7013 AT TIME STEP    2, STRESS PERIOD  13
 UBDSV1 SAVING "FLOW FRONT FACE " ON UNIT7013 AT TIME STEP    2, STRESS PERIOD  13
 UBDSV1 SAVING "FLOW LOWER FACE " ON UNIT7013 AT TIME STEP    2, STRESS PERIOD  13
 UBDSV4 SAVING "  STREAM LEAKAGE" ON UNIT7013 AT TIME STEP    2, STRESS PERIOD  13



 UBDSV3 SAVING "FARM  NET  RECH." ON UNIT7013 AT TIME STEP    2, STRESS PERIOD  13
 UBDSV4 SAVING " GHOST-NODE HEAD" ON UNIT7013 AT TIME STEP    2, STRESS PERIOD  13
1
  VOLUMETRIC BUDGET FOR ENTIRE MODEL AT END OF TIME STEP    2 IN STRESS PERIOD     13
  ------------------------------------------------------------------------------

     CUMULATIVE VOLUMES      L**3       RATES FOR THIS TIME STEP      L**3/T
     ------------------                 ------------------------

           IN:                                      IN:
           ---                                      ---
             STORAGE =      126052.2031               STORAGE =           0.0000
       CONSTANT HEAD =           0.0000         CONSTANT HEAD =           0.0000
      STREAM LEAKAGE =      138328.3281        STREAM LEAKAGE =          19.3101
          FARM WELLS =           0.0000            FARM WELLS =           0.0000
    FARM  NET  RECH. =      207398.9688      FARM  NET  RECH. =         809.0486
     GHOST-NODE HEAD =      989350.0625       GHOST-NODE HEAD =        2885.4751

            TOTAL IN =     1461129.5000              TOTAL IN =        3713.8337

          OUT:                                     OUT:
          ----                                     ----
             STORAGE =       51502.4062               STORAGE =         477.5178
       CONSTANT HEAD =           0.0000         CONSTANT HEAD =           0.0000
      STREAM LEAKAGE =       96593.7266        STREAM LEAKAGE =          10.5559
          FARM WELLS =       45434.2578            FARM WELLS =           0.0000
    FARM  NET  RECH. =        3526.6760      FARM  NET  RECH. =           0.0000
     GHOST-NODE HEAD =     1264073.7500       GHOST-NODE HEAD =        3225.7839

           TOTAL OUT =     1461130.7500             TOTAL OUT =        3713.8577

            IN - OUT =          -1.2500              IN - OUT =      -2.3926E-02

 PERCENT DISCREPANCY =          -0.00     PERCENT DISCREPANCY =          -0.00






          TIME SUMMARY AT END OF TIME STEP     2 IN STRESS PERIOD     13
                    SECONDS     MINUTES      HOURS       DAYS        YEARS
                    -----------------------------------------------------------
   TIME STEP LENGTH 1.31414E+06  21902.      365.04      15.210     4.16427E-02
 STRESS PERIOD TIME 2.62829E+06  43805.      730.08      30.420     8.32854E-02
         TOTAL TIME 3.41677E+07 5.69462E+05  9491.0      395.46      1.0827    
1
1
  FLUX ACROSS PARENT-CHILD INTERFACE AT TIME STEP  2 IN STRESS PERIOD   13
  ------------------------------------------------------------------------
 G-N FLUX        PARENT        CHILD         DIFFERENCE      % DIFFERENCE
  RATE IN:      2.8857E+03    2.8855E+03     2.6294E-01        0.0091
 RATE OUT:      3.2259E+03    3.2258E+03     8.3496E-02        0.0026
1
                            STRESS PERIOD NO.     14, LENGTH =   30.42000    
                            -----------------------------------------------

                              NUMBER OF TIME STEPS =     2

                               MULTIPLIER FOR DELT =     1.000

                            INITIAL TIME STEP SIZE =   15.21000    

 REUSING STREAM SEGMENT DATA FROM LAST STRESS PERIOD

 Parameter:  WELLS1
 WELL NO. LAYER    ROW    COL  F-WELL ID    FARM ID         QMAX         QMAXRESET       LGRGRID         
 --------------------------------------------------------------------------------------------------------
       1      1      2      2          5          2      2.0000E+03              0              0
       2      1      5      5          6          2      1.0000E+03              0              0

 NUMBER OF ACTIVE FARM WELLS:        2

 FARM-ID  NUMBER OF WELLS PER FARM  TOTAL MAX.CAPACITY PER FARM
       1                         0                       0.0000
       2                         2                    3000.0000
       3                         0                       0.0000
       4                         0                       0.0000
       5                         0                       0.0000
       6                         0                       0.0000
       7                         0                       0.0000
       8                         0                       0.0000

Transpiratory and Evaporative Fractions of Crop Consumptive Use
    % Transpiration % Evap. for Precip. % Evap. for Irrig.
    3          0.845          0.155          0.155
    5          0.783          0.217          0.000

FRACTIONS OF IN-EFFICIENT LOSSES TO SW-RUNOFF FROM 
     PRECIPITATION:  IRRIGATION:
    3          0.600          0.500
    5          0.850          0.000
 
 SOLVING FOR HEAD 


     3 CALLS TO PCG ROUTINE FOR TIME STEP   1 IN STRESS PERIOD   14
    11 TOTAL ITERATIONS


     3 CALLS TO PCG ROUTINE FOR TIME STEP   1 IN STRESS PERIOD   14
    10 TOTAL ITERATIONS


     2 CALLS TO PCG ROUTINE FOR TIME STEP   1 IN STRESS PERIOD   14
     7 TOTAL ITERATIONS


     2 CALLS TO PCG ROUTINE FOR TIME STEP   1 IN STRESS PERIOD   14
     7 TOTAL ITERATIONS


     2 CALLS TO PCG ROUTINE FOR TIME STEP   1 IN STRESS PERIOD   14
     6 TOTAL ITERATIONS


     2 CALLS TO PCG ROUTINE FOR TIME STEP   1 IN STRESS PERIOD   14
     5 TOTAL ITERATIONS


     2 CALLS TO PCG ROUTINE FOR TIME STEP   1 IN STRESS PERIOD   14
     4 TOTAL ITERATIONS


     2 CALLS TO PCG ROUTINE FOR TIME STEP   1 IN STRESS PERIOD   14
     4 TOTAL ITERATIONS


     2 CALLS TO PCG ROUTINE FOR TIME STEP   1 IN STRESS PERIOD   14
     4 TOTAL ITERATIONS


     2 CALLS TO PCG ROUTINE FOR TIME STEP   1 IN STRESS PERIOD   14
     3 TOTAL ITERATIONS

 OUTPUT CONTROL FOR STRESS PERIOD     14   TIME STEP     1
    SAVE BUDGET
 UBDSV1 SAVING "         STORAGE" ON UNIT7013 AT TIME STEP    1, STRESS PERIOD  14
 UBDSV2 SAVING "   CONSTANT HEAD" ON UNIT7013 AT TIME STEP    1, STRESS PERIOD  14
 UBDSV1 SAVING "FLOW RIGHT FACE " ON UNIT7013 AT TIME STEP    1, STRESS PERIOD  14
 UBDSV1 SAVING "FLOW FRONT FACE " ON UNIT7013 AT TIME STEP    1, STRESS PERIOD  14
 UBDSV1 SAVING "FLOW LOWER FACE " ON UNIT7013 AT TIME STEP    1, STRESS PERIOD  14
 UBDSV4 SAVING "  STREAM LEAKAGE" ON UNIT7013 AT TIME STEP    1, STRESS PERIOD  14



 UBDSV3 SAVING "FARM  NET  RECH." ON UNIT7013 AT TIME STEP    1, STRESS PERIOD  14
 UBDSV4 SAVING " GHOST-NODE HEAD" ON UNIT7013 AT TIME STEP    1, STRESS PERIOD  14
1
  FLUX ACROSS PARENT-CHILD INTERFACE AT TIME STEP  1 IN STRESS PERIOD   14
  ------------------------------------------------------------------------
 G-N FLUX        PARENT        CHILD         DIFFERENCE      % DIFFERENCE
  RATE IN:      2.9573E+03    2.9569E+03     3.5645E-01        0.0121
 RATE OUT:      3.3591E+03    3.3587E+03     4.0991E-01        0.0122
 
 SOLVING FOR HEAD 
     3 CALLS TO PCG ROUTINE FOR TIME STEP   2 IN STRESS PERIOD   14
    10 TOTAL ITERATIONS
     3 CALLS TO PCG ROUTINE FOR TIME STEP   2 IN STRESS PERIOD   14
    10 TOTAL ITERATIONS
     2 CALLS TO PCG ROUTINE FOR TIME STEP   2 IN STRESS PERIOD   14
     7 TOTAL ITERATIONS
     2 CALLS TO PCG ROUTINE FOR TIME STEP   2 IN STRESS PERIOD   14
     7 TOTAL ITERATIONS
     2 CALLS TO PCG ROUTINE FOR TIME STEP   2 IN STRESS PERIOD   14
     5 TOTAL ITERATIONS
     2 CALLS TO PCG ROUTINE FOR TIME STEP   2 IN STRESS PERIOD   14
     5 TOTAL ITERATIONS
     2 CALLS TO PCG ROUTINE FOR TIME STEP   2 IN STRESS PERIOD   14
     4 TOTAL ITERATIONS
     2 CALLS TO PCG ROUTINE FOR TIME STEP   2 IN STRESS PERIOD   14
     4 TOTAL ITERATIONS
     2 CALLS TO PCG ROUTINE FOR TIME STEP   2 IN STRESS PERIOD   14
     4 TOTAL ITERATIONS
     2 CALLS TO PCG ROUTINE FOR TIME STEP   2 IN STRESS PERIOD   14
     3 TOTAL ITERATIONS

 OUTPUT CONTROL FOR STRESS PERIOD     14   TIME STEP     2
    SAVE BUDGET
 UBDSV1 SAVING "         STORAGE" ON UNIT7013 AT TIME STEP    2, STRESS PERIOD  14
 UBDSV2 SAVING "   CONSTANT HEAD" ON UNIT7013 AT TIME STEP    2, STRESS PERIOD  14
 UBDSV1 SAVING "FLOW RIGHT FACE " ON UNIT7013 AT TIME STEP    2, STRESS PERIOD  14
 UBDSV1 SAVING "FLOW FRONT FACE " ON UNIT7013 AT TIME STEP    2, STRESS PERIOD  14
 UBDSV1 SAVING "FLOW LOWER FACE " ON UNIT7013 AT TIME STEP    2, STRESS PERIOD  14
 UBDSV4 SAVING "  STREAM LEAKAGE" ON UNIT7013 AT TIME STEP    2, STRESS PERIOD  14



 UBDSV3 SAVING "FARM  NET  RECH." ON UNIT7013 AT TIME STEP    2, STRESS PERIOD  14
 UBDSV4 SAVING " GHOST-NODE HEAD" ON UNIT7013 AT TIME STEP    2, STRESS PERIOD  14
1
  VOLUMETRIC BUDGET FOR ENTIRE MODEL AT END OF TIME STEP    2 IN STRESS PERIOD     14
  ------------------------------------------------------------------------------

     CUMULATIVE VOLUMES      L**3       RATES FOR THIS TIME STEP      L**3/T
     ------------------                 ------------------------

           IN:                                      IN:
           ---                                      ---
             STORAGE =      126052.2031               STORAGE =           0.0000
       CONSTANT HEAD =           0.0000         CONSTANT HEAD =           0.0000
      STREAM LEAKAGE =      138328.3281        STREAM LEAKAGE =           0.0000
          FARM WELLS =           0.0000            FARM WELLS =           0.0000
    FARM  NET  RECH. =      246165.8594      FARM  NET  RECH. =        1272.1184
     GHOST-NODE HEAD =     1080817.5000       GHOST-NODE HEAD =        3056.7268

            TOTAL IN =     1591363.8750              TOTAL IN =        4328.8452

          OUT:                                     OUT:
          ----                                     ----
             STORAGE =       70712.0859               STORAGE =         562.4781
       CONSTANT HEAD =           0.0000         CONSTANT HEAD =           0.0000
      STREAM LEAKAGE =      104123.5078        STREAM LEAKAGE =         320.6390
          FARM WELLS =       45434.2578            FARM WELLS =           0.0000
    FARM  NET  RECH. =        3526.6760      FARM  NET  RECH. =           0.0000
     GHOST-NODE HEAD =     1367569.7500       GHOST-NODE HEAD =        3445.7576

           TOTAL OUT =     1591366.2500             TOTAL OUT =        4328.8745

            IN - OUT =          -2.3750              IN - OUT =      -2.9297E-02

 PERCENT DISCREPANCY =          -0.00     PERCENT DISCREPANCY =          -0.00






          TIME SUMMARY AT END OF TIME STEP     2 IN STRESS PERIOD     14
                    SECONDS     MINUTES      HOURS       DAYS        YEARS
                    -----------------------------------------------------------
   TIME STEP LENGTH 1.31414E+06  21902.      365.04      15.210     4.16427E-02
 STRESS PERIOD TIME 2.62829E+06  43805.      730.08      30.420     8.32854E-02
         TOTAL TIME 3.67960E+07 6.13267E+05  10221.      425.88      1.1660    
1
1
  FLUX ACROSS PARENT-CHILD INTERFACE AT TIME STEP  2 IN STRESS PERIOD   14
  ------------------------------------------------------------------------
 G-N FLUX        PARENT        CHILD         DIFFERENCE      % DIFFERENCE
  RATE IN:      3.0571E+03    3.0567E+03     3.2544E-01        0.0106
 RATE OUT:      3.4460E+03    3.4458E+03     2.2656E-01        0.0066
1
                            STRESS PERIOD NO.     15, LENGTH =   30.42000    
                            -----------------------------------------------

                              NUMBER OF TIME STEPS =     2

                               MULTIPLIER FOR DELT =     1.000

                            INITIAL TIME STEP SIZE =   15.21000    

 REUSING STREAM SEGMENT DATA FROM LAST STRESS PERIOD

 Parameter:  WELLS1
 WELL NO. LAYER    ROW    COL  F-WELL ID    FARM ID         QMAX         QMAXRESET       LGRGRID         
 --------------------------------------------------------------------------------------------------------
       1      1      2      2          5          2      2.0000E+03              0              0
       2      1      5      5          6          2      1.0000E+03              0              0

 NUMBER OF ACTIVE FARM WELLS:        2

 FARM-ID  NUMBER OF WELLS PER FARM  TOTAL MAX.CAPACITY PER FARM
       1                         0                       0.0000
       2                         2                    3000.0000
       3                         0                       0.0000
       4                         0                       0.0000
       5                         0                       0.0000
       6                         0                       0.0000
       7                         0                       0.0000
       8                         0                       0.0000

Transpiratory and Evaporative Fractions of Crop Consumptive Use
    % Transpiration % Evap. for Precip. % Evap. for Irrig.
    3          0.000          1.000          1.000
    5          0.835          0.165          0.000

FRACTIONS OF IN-EFFICIENT LOSSES TO SW-RUNOFF FROM 
     PRECIPITATION:  IRRIGATION:
    3          0.600          0.500
    5          0.500          0.000
 
 SOLVING FOR HEAD 


     3 CALLS TO PCG ROUTINE FOR TIME STEP   1 IN STRESS PERIOD   15
    10 TOTAL ITERATIONS


     3 CALLS TO PCG ROUTINE FOR TIME STEP   1 IN STRESS PERIOD   15
     9 TOTAL ITERATIONS


     2 CALLS TO PCG ROUTINE FOR TIME STEP   1 IN STRESS PERIOD   15
     7 TOTAL ITERATIONS


     2 CALLS TO PCG ROUTINE FOR TIME STEP   1 IN STRESS PERIOD   15
     6 TOTAL ITERATIONS


     2 CALLS TO PCG ROUTINE FOR TIME STEP   1 IN STRESS PERIOD   15
     5 TOTAL ITERATIONS


     2 CALLS TO PCG ROUTINE FOR TIME STEP   1 IN STRESS PERIOD   15
     4 TOTAL ITERATIONS


     2 CALLS TO PCG ROUTINE FOR TIME STEP   1 IN STRESS PERIOD   15
     4 TOTAL ITERATIONS


     2 CALLS TO PCG ROUTINE FOR TIME STEP   1 IN STRESS PERIOD   15
     3 TOTAL ITERATIONS


     2 CALLS TO PCG ROUTINE FOR TIME STEP   1 IN STRESS PERIOD   15
     3 TOTAL ITERATIONS

 OUTPUT CONTROL FOR STRESS PERIOD     15   TIME STEP     1
    SAVE BUDGET
 UBDSV1 SAVING "         STORAGE" ON UNIT7013 AT TIME STEP    1, STRESS PERIOD  15
 UBDSV2 SAVING "   CONSTANT HEAD" ON UNIT7013 AT TIME STEP    1, STRESS PERIOD  15
 UBDSV1 SAVING "FLOW RIGHT FACE " ON UNIT7013 AT TIME STEP    1, STRESS PERIOD  15
 UBDSV1 SAVING "FLOW FRONT FACE " ON UNIT7013 AT TIME STEP    1, STRESS PERIOD  15
 UBDSV1 SAVING "FLOW LOWER FACE " ON UNIT7013 AT TIME STEP    1, STRESS PERIOD  15
 UBDSV4 SAVING "  STREAM LEAKAGE" ON UNIT7013 AT TIME STEP    1, STRESS PERIOD  15



 UBDSV3 SAVING "FARM  NET  RECH." ON UNIT7013 AT TIME STEP    1, STRESS PERIOD  15
 UBDSV4 SAVING " GHOST-NODE HEAD" ON UNIT7013 AT TIME STEP    1, STRESS PERIOD  15
1
  FLUX ACROSS PARENT-CHILD INTERFACE AT TIME STEP  1 IN STRESS PERIOD   15
  ------------------------------------------------------------------------
 G-N FLUX        PARENT        CHILD         DIFFERENCE      % DIFFERENCE
  RATE IN:      2.9811E+03    2.9807E+03     4.7754E-01        0.0160
 RATE OUT:      3.5634E+03    3.5634E+03    -6.8359E-03       -0.0002
 
 SOLVING FOR HEAD 
     2 CALLS TO PCG ROUTINE FOR TIME STEP   2 IN STRESS PERIOD   15
     8 TOTAL ITERATIONS
     3 CALLS TO PCG ROUTINE FOR TIME STEP   2 IN STRESS PERIOD   15
     9 TOTAL ITERATIONS
     2 CALLS TO PCG ROUTINE FOR TIME STEP   2 IN STRESS PERIOD   15
     6 TOTAL ITERATIONS
     2 CALLS TO PCG ROUTINE FOR TIME STEP   2 IN STRESS PERIOD   15
     5 TOTAL ITERATIONS
     2 CALLS TO PCG ROUTINE FOR TIME STEP   2 IN STRESS PERIOD   15
     5 TOTAL ITERATIONS
     2 CALLS TO PCG ROUTINE FOR TIME STEP   2 IN STRESS PERIOD   15
     3 TOTAL ITERATIONS
     2 CALLS TO PCG ROUTINE FOR TIME STEP   2 IN STRESS PERIOD   15
     3 TOTAL ITERATIONS
     2 CALLS TO PCG ROUTINE FOR TIME STEP   2 IN STRESS PERIOD   15
     3 TOTAL ITERATIONS

 OUTPUT CONTROL FOR STRESS PERIOD     15   TIME STEP     2
    PRINT BUDGET
    SAVE HEAD FOR ALL LAYERS
    SAVE BUDGET
 UBDSV1 SAVING "         STORAGE" ON UNIT7013 AT TIME STEP    2, STRESS PERIOD  15
 UBDSV2 SAVING "   CONSTANT HEAD" ON UNIT7013 AT TIME STEP    2, STRESS PERIOD  15
 UBDSV1 SAVING "FLOW RIGHT FACE " ON UNIT7013 AT TIME STEP    2, STRESS PERIOD  15
 UBDSV1 SAVING "FLOW FRONT FACE " ON UNIT7013 AT TIME STEP    2, STRESS PERIOD  15
 UBDSV1 SAVING "FLOW LOWER FACE " ON UNIT7013 AT TIME STEP    2, STRESS PERIOD  15
 UBDSV4 SAVING "  STREAM LEAKAGE" ON UNIT7013 AT TIME STEP    2, STRESS PERIOD  15



 UBDSV3 SAVING "FARM  NET  RECH." ON UNIT7013 AT TIME STEP    2, STRESS PERIOD  15
 UBDSV4 SAVING " GHOST-NODE HEAD" ON UNIT7013 AT TIME STEP    2, STRESS PERIOD  15

 HEAD WILL BE SAVED ON UNIT 2213 AT END OF TIME STEP     2, STRESS PERIOD     15
1
  VOLUMETRIC BUDGET FOR ENTIRE MODEL AT END OF TIME STEP    2 IN STRESS PERIOD     15
  ------------------------------------------------------------------------------

     CUMULATIVE VOLUMES      L**3       RATES FOR THIS TIME STEP      L**3/T
     ------------------                 ------------------------

           IN:                                      IN:
           ---                                      ---
             STORAGE =      128151.1094               STORAGE =          60.5963
       CONSTANT HEAD =           0.0000         CONSTANT HEAD =           0.0000
      STREAM LEAKAGE =      138328.3281        STREAM LEAKAGE =           0.0000
          FARM WELLS =           0.0000            FARM WELLS =           0.0000
    FARM  NET  RECH. =      271514.8438      FARM  NET  RECH. =         833.3000
     GHOST-NODE HEAD =     1171036.3750       GHOST-NODE HEAD =        2950.8914

            TOTAL IN =     1709030.6250              TOTAL IN =        3844.7876

          OUT:                                     OUT:
          ----                                     ----
             STORAGE =       71749.7969               STORAGE =          13.4648
       CONSTANT HEAD =           0.0000         CONSTANT HEAD =           0.0000
      STREAM LEAKAGE =      111288.4609        STREAM LEAKAGE =         201.8527
          FARM WELLS =       45434.2578            FARM WELLS =           0.0000
    FARM  NET  RECH. =        3622.9697      FARM  NET  RECH. =           2.3685
     GHOST-NODE HEAD =     1476936.8750       GHOST-NODE HEAD =        3627.0759

           TOTAL OUT =     1709032.3750             TOTAL OUT =        3844.7620

            IN - OUT =          -1.7500              IN - OUT =       2.5635E-02

 PERCENT DISCREPANCY =          -0.00     PERCENT DISCREPANCY =           0.00






          TIME SUMMARY AT END OF TIME STEP     2 IN STRESS PERIOD     15
                    SECONDS     MINUTES      HOURS       DAYS        YEARS
                    -----------------------------------------------------------
   TIME STEP LENGTH 1.31414E+06  21902.      365.04      15.210     4.16427E-02
 STRESS PERIOD TIME 2.62829E+06  43805.      730.08      30.420     8.32854E-02
         TOTAL TIME 3.94243E+07 6.57072E+05  10951.      456.30      1.2493    
1
1
  FLUX ACROSS PARENT-CHILD INTERFACE AT TIME STEP  2 IN STRESS PERIOD   15
  ------------------------------------------------------------------------
 G-N FLUX        PARENT        CHILD         DIFFERENCE      % DIFFERENCE
  RATE IN:      2.9518E+03    2.9509E+03     9.1528E-01        0.0310
 RATE OUT:      3.6268E+03    3.6271E+03    -3.0371E-01       -0.0084
1
                            STRESS PERIOD NO.     16, LENGTH =   30.42000    
                            -----------------------------------------------

                              NUMBER OF TIME STEPS =     2

                               MULTIPLIER FOR DELT =     1.000

                            INITIAL TIME STEP SIZE =   15.21000    

 REUSING STREAM SEGMENT DATA FROM LAST STRESS PERIOD

 Parameter:  WELLS1
 WELL NO. LAYER    ROW    COL  F-WELL ID    FARM ID         QMAX         QMAXRESET       LGRGRID         
 --------------------------------------------------------------------------------------------------------
       1      1      2      2          5          2      2.0000E+03              0              0
       2      1      5      5          6          2      1.0000E+03              0              0

 NUMBER OF ACTIVE FARM WELLS:        2

 FARM-ID  NUMBER OF WELLS PER FARM  TOTAL MAX.CAPACITY PER FARM
       1                         0                       0.0000
       2                         2                    3000.0000
       3                         0                       0.0000
       4                         0                       0.0000
       5                         0                       0.0000
       6                         0                       0.0000
       7                         0                       0.0000
       8                         0                       0.0000

Transpiratory and Evaporative Fractions of Crop Consumptive Use
    % Transpiration % Evap. for Precip. % Evap. for Irrig.
    3          0.000          1.000          1.000
    5          0.887          0.113          0.000

FRACTIONS OF IN-EFFICIENT LOSSES TO SW-RUNOFF FROM 
     PRECIPITATION:  IRRIGATION:
    3          0.600          0.500
    5          0.500          0.000
 
 SOLVING FOR HEAD 


     3 CALLS TO PCG ROUTINE FOR TIME STEP   1 IN STRESS PERIOD   16
    10 TOTAL ITERATIONS


     3 CALLS TO PCG ROUTINE FOR TIME STEP   1 IN STRESS PERIOD   16
    12 TOTAL ITERATIONS


     3 CALLS TO PCG ROUTINE FOR TIME STEP   1 IN STRESS PERIOD   16
    10 TOTAL ITERATIONS


     2 CALLS TO PCG ROUTINE FOR TIME STEP   1 IN STRESS PERIOD   16
     7 TOTAL ITERATIONS


     2 CALLS TO PCG ROUTINE FOR TIME STEP   1 IN STRESS PERIOD   16
     6 TOTAL ITERATIONS


     2 CALLS TO PCG ROUTINE FOR TIME STEP   1 IN STRESS PERIOD   16
     6 TOTAL ITERATIONS


     2 CALLS TO PCG ROUTINE FOR TIME STEP   1 IN STRESS PERIOD   16
     6 TOTAL ITERATIONS


     2 CALLS TO PCG ROUTINE FOR TIME STEP   1 IN STRESS PERIOD   16
     5 TOTAL ITERATIONS


     2 CALLS TO PCG ROUTINE FOR TIME STEP   1 IN STRESS PERIOD   16
     4 TOTAL ITERATIONS


     2 CALLS TO PCG ROUTINE FOR TIME STEP   1 IN STRESS PERIOD   16
     3 TOTAL ITERATIONS


     2 CALLS TO PCG ROUTINE FOR TIME STEP   1 IN STRESS PERIOD   16
     3 TOTAL ITERATIONS


     1 CALLS TO PCG ROUTINE FOR TIME STEP   1 IN STRESS PERIOD   16
     1 TOTAL ITERATIONS

 OUTPUT CONTROL FOR STRESS PERIOD     16   TIME STEP     1
    SAVE BUDGET
 UBDSV1 SAVING "         STORAGE" ON UNIT7013 AT TIME STEP    1, STRESS PERIOD  16
 UBDSV2 SAVING "   CONSTANT HEAD" ON UNIT7013 AT TIME STEP    1, STRESS PERIOD  16
 UBDSV1 SAVING "FLOW RIGHT FACE " ON UNIT7013 AT TIME STEP    1, STRESS PERIOD  16
 UBDSV1 SAVING "FLOW FRONT FACE " ON UNIT7013 AT TIME STEP    1, STRESS PERIOD  16
 UBDSV1 SAVING "FLOW LOWER FACE " ON UNIT7013 AT TIME STEP    1, STRESS PERIOD  16
 UBDSV4 SAVING "  STREAM LEAKAGE" ON UNIT7013 AT TIME STEP    1, STRESS PERIOD  16



 UBDSV3 SAVING "FARM  NET  RECH." ON UNIT7013 AT TIME STEP    1, STRESS PERIOD  16
 UBDSV4 SAVING " GHOST-NODE HEAD" ON UNIT7013 AT TIME STEP    1, STRESS PERIOD  16
1
  FLUX ACROSS PARENT-CHILD INTERFACE AT TIME STEP  1 IN STRESS PERIOD   16
  ------------------------------------------------------------------------
 G-N FLUX        PARENT        CHILD         DIFFERENCE      % DIFFERENCE
  RATE IN:      2.7465E+03    2.7466E+03    -1.1377E-01       -0.0041
 RATE OUT:      3.5207E+03    3.5204E+03     3.1836E-01        0.0090
 
 SOLVING FOR HEAD 
     3 CALLS TO PCG ROUTINE FOR TIME STEP   2 IN STRESS PERIOD   16
    10 TOTAL ITERATIONS
     3 CALLS TO PCG ROUTINE FOR TIME STEP   2 IN STRESS PERIOD   16
    10 TOTAL ITERATIONS
     3 CALLS TO PCG ROUTINE FOR TIME STEP   2 IN STRESS PERIOD   16
     9 TOTAL ITERATIONS
     2 CALLS TO PCG ROUTINE FOR TIME STEP   2 IN STRESS PERIOD   16
     6 TOTAL ITERATIONS
     2 CALLS TO PCG ROUTINE FOR TIME STEP   2 IN STRESS PERIOD   16
     6 TOTAL ITERATIONS
     2 CALLS TO PCG ROUTINE FOR TIME STEP   2 IN STRESS PERIOD   16
     6 TOTAL ITERATIONS
     2 CALLS TO PCG ROUTINE FOR TIME STEP   2 IN STRESS PERIOD   16
     5 TOTAL ITERATIONS
     2 CALLS TO PCG ROUTINE FOR TIME STEP   2 IN STRESS PERIOD   16
     4 TOTAL ITERATIONS
     2 CALLS TO PCG ROUTINE FOR TIME STEP   2 IN STRESS PERIOD   16
     4 TOTAL ITERATIONS
     2 CALLS TO PCG ROUTINE FOR TIME STEP   2 IN STRESS PERIOD   16
     3 TOTAL ITERATIONS
     2 CALLS TO PCG ROUTINE FOR TIME STEP   2 IN STRESS PERIOD   16
     3 TOTAL ITERATIONS

 OUTPUT CONTROL FOR STRESS PERIOD     16   TIME STEP     2
    SAVE BUDGET
 UBDSV1 SAVING "         STORAGE" ON UNIT7013 AT TIME STEP    2, STRESS PERIOD  16
 UBDSV2 SAVING "   CONSTANT HEAD" ON UNIT7013 AT TIME STEP    2, STRESS PERIOD  16
 UBDSV1 SAVING "FLOW RIGHT FACE " ON UNIT7013 AT TIME STEP    2, STRESS PERIOD  16
 UBDSV1 SAVING "FLOW FRONT FACE " ON UNIT7013 AT TIME STEP    2, STRESS PERIOD  16
 UBDSV1 SAVING "FLOW LOWER FACE " ON UNIT7013 AT TIME STEP    2, STRESS PERIOD  16
 UBDSV4 SAVING "  STREAM LEAKAGE" ON UNIT7013 AT TIME STEP    2, STRESS PERIOD  16



 UBDSV3 SAVING "FARM  NET  RECH." ON UNIT7013 AT TIME STEP    2, STRESS PERIOD  16
 UBDSV4 SAVING " GHOST-NODE HEAD" ON UNIT7013 AT TIME STEP    2, STRESS PERIOD  16
1
  VOLUMETRIC BUDGET FOR ENTIRE MODEL AT END OF TIME STEP    2 IN STRESS PERIOD     16
  ------------------------------------------------------------------------------

     CUMULATIVE VOLUMES      L**3       RATES FOR THIS TIME STEP      L**3/T
     ------------------                 ------------------------

           IN:                                      IN:
           ---                                      ---
             STORAGE =      144820.8906               STORAGE =         506.8957
       CONSTANT HEAD =           0.0000         CONSTANT HEAD =           0.0000
      STREAM LEAKAGE =      141262.9688        STREAM LEAKAGE =         168.5780
          FARM WELLS =           0.0000            FARM WELLS =           0.0000
    FARM  NET  RECH. =      276859.6562      FARM  NET  RECH. =         175.7000
     GHOST-NODE HEAD =     1252589.1250       GHOST-NODE HEAD =        2615.1960

            TOTAL IN =     1815532.6250              TOTAL IN =        3466.3696

          OUT:                                     OUT:
          ----                                     ----
             STORAGE =       71749.7969               STORAGE =           0.0000
       CONSTANT HEAD =           0.0000         CONSTANT HEAD =           0.0000
      STREAM LEAKAGE =      111515.4375        STREAM LEAKAGE =           0.0000
          FARM WELLS =       45434.2578            FARM WELLS =           0.0000
    FARM  NET  RECH. =        3628.1860      FARM  NET  RECH. =           0.0000
     GHOST-NODE HEAD =     1583205.2500       GHOST-NODE HEAD =        3466.3855

           TOTAL OUT =     1815533.0000             TOTAL OUT =        3466.3855

            IN - OUT =          -0.3750              IN - OUT =      -1.5869E-02

 PERCENT DISCREPANCY =          -0.00     PERCENT DISCREPANCY =          -0.00






          TIME SUMMARY AT END OF TIME STEP     2 IN STRESS PERIOD     16
                    SECONDS     MINUTES      HOURS       DAYS        YEARS
                    -----------------------------------------------------------
   TIME STEP LENGTH 1.31414E+06  21902.      365.04      15.210     4.16427E-02
 STRESS PERIOD TIME 2.62829E+06  43805.      730.08      30.420     8.32854E-02
         TOTAL TIME 4.20526E+07 7.00877E+05  11681.      486.72      1.3326    
1
1
  FLUX ACROSS PARENT-CHILD INTERFACE AT TIME STEP  2 IN STRESS PERIOD   16
  ------------------------------------------------------------------------
 G-N FLUX        PARENT        CHILD         DIFFERENCE      % DIFFERENCE
  RATE IN:      2.6150E+03    2.6152E+03    -2.3975E-01       -0.0092
 RATE OUT:      3.4665E+03    3.4664E+03     1.5771E-01        0.0045
1
                            STRESS PERIOD NO.     17, LENGTH =   30.42000    
                            -----------------------------------------------

                              NUMBER OF TIME STEPS =     2

                               MULTIPLIER FOR DELT =     1.000

                            INITIAL TIME STEP SIZE =   15.21000    

 REUSING STREAM SEGMENT DATA FROM LAST STRESS PERIOD

 Parameter:  WELLS1
 WELL NO. LAYER    ROW    COL  F-WELL ID    FARM ID         QMAX         QMAXRESET       LGRGRID         
 --------------------------------------------------------------------------------------------------------
       1      1      2      2          5          2      2.0000E+03              0              0
       2      1      5      5          6          2      1.0000E+03              0              0

 NUMBER OF ACTIVE FARM WELLS:        2

 FARM-ID  NUMBER OF WELLS PER FARM  TOTAL MAX.CAPACITY PER FARM
       1                         0                       0.0000
       2                         2                    3000.0000
       3                         0                       0.0000
       4                         0                       0.0000
       5                         0                       0.0000
       6                         0                       0.0000
       7                         0                       0.0000
       8                         0                       0.0000

Transpiratory and Evaporative Fractions of Crop Consumptive Use
    % Transpiration % Evap. for Precip. % Evap. for Irrig.
    3          0.000          1.000          1.000
    5          0.924          0.076          0.000

FRACTIONS OF IN-EFFICIENT LOSSES TO SW-RUNOFF FROM 
     PRECIPITATION:  IRRIGATION:
    3          0.600          0.500
    5          0.500          0.000
 
 SOLVING FOR HEAD 


     3 CALLS TO PCG ROUTINE FOR TIME STEP   1 IN STRESS PERIOD   17
    11 TOTAL ITERATIONS


     3 CALLS TO PCG ROUTINE FOR TIME STEP   1 IN STRESS PERIOD   17
    11 TOTAL ITERATIONS


     3 CALLS TO PCG ROUTINE FOR TIME STEP   1 IN STRESS PERIOD   17
    10 TOTAL ITERATIONS


     3 CALLS TO PCG ROUTINE FOR TIME STEP   1 IN STRESS PERIOD   17
     9 TOTAL ITERATIONS


     2 CALLS TO PCG ROUTINE FOR TIME STEP   1 IN STRESS PERIOD   17
     7 TOTAL ITERATIONS


     2 CALLS TO PCG ROUTINE FOR TIME STEP   1 IN STRESS PERIOD   17
     6 TOTAL ITERATIONS


     2 CALLS TO PCG ROUTINE FOR TIME STEP   1 IN STRESS PERIOD   17
     6 TOTAL ITERATIONS


     2 CALLS TO PCG ROUTINE FOR TIME STEP   1 IN STRESS PERIOD   17
     6 TOTAL ITERATIONS


     2 CALLS TO PCG ROUTINE FOR TIME STEP   1 IN STRESS PERIOD   17
     5 TOTAL ITERATIONS


     2 CALLS TO PCG ROUTINE FOR TIME STEP   1 IN STRESS PERIOD   17
     4 TOTAL ITERATIONS


     2 CALLS TO PCG ROUTINE FOR TIME STEP   1 IN STRESS PERIOD   17
     3 TOTAL ITERATIONS


     2 CALLS TO PCG ROUTINE FOR TIME STEP   1 IN STRESS PERIOD   17
     3 TOTAL ITERATIONS

 OUTPUT CONTROL FOR STRESS PERIOD     17   TIME STEP     1
    SAVE BUDGET
 UBDSV1 SAVING "         STORAGE" ON UNIT7013 AT TIME STEP    1, STRESS PERIOD  17
 UBDSV2 SAVING "   CONSTANT HEAD" ON UNIT7013 AT TIME STEP    1, STRESS PERIOD  17
 UBDSV1 SAVING "FLOW RIGHT FACE " ON UNIT7013 AT TIME STEP    1, STRESS PERIOD  17
 UBDSV1 SAVING "FLOW FRONT FACE " ON UNIT7013 AT TIME STEP    1, STRESS PERIOD  17
 UBDSV1 SAVING "FLOW LOWER FACE " ON UNIT7013 AT TIME STEP    1, STRESS PERIOD  17
 UBDSV4 SAVING "  STREAM LEAKAGE" ON UNIT7013 AT TIME STEP    1, STRESS PERIOD  17



 UBDSV3 SAVING "FARM  NET  RECH." ON UNIT7013 AT TIME STEP    1, STRESS PERIOD  17
 UBDSV4 SAVING " GHOST-NODE HEAD" ON UNIT7013 AT TIME STEP    1, STRESS PERIOD  17
1
  FLUX ACROSS PARENT-CHILD INTERFACE AT TIME STEP  1 IN STRESS PERIOD   17
  ------------------------------------------------------------------------
 G-N FLUX        PARENT        CHILD         DIFFERENCE      % DIFFERENCE
  RATE IN:      1.8875E+03    1.8872E+03     2.5525E-01        0.0135
 RATE OUT:      3.3660E+03    3.3645E+03     1.4180E+00        0.0421
 
 SOLVING FOR HEAD 
     3 CALLS TO PCG ROUTINE FOR TIME STEP   2 IN STRESS PERIOD   17
    11 TOTAL ITERATIONS
     3 CALLS TO PCG ROUTINE FOR TIME STEP   2 IN STRESS PERIOD   17
    11 TOTAL ITERATIONS
     3 CALLS TO PCG ROUTINE FOR TIME STEP   2 IN STRESS PERIOD   17
    10 TOTAL ITERATIONS
     2 CALLS TO PCG ROUTINE FOR TIME STEP   2 IN STRESS PERIOD   17
     7 TOTAL ITERATIONS
     2 CALLS TO PCG ROUTINE FOR TIME STEP   2 IN STRESS PERIOD   17
     6 TOTAL ITERATIONS
     2 CALLS TO PCG ROUTINE FOR TIME STEP   2 IN STRESS PERIOD   17
     6 TOTAL ITERATIONS
     2 CALLS TO PCG ROUTINE FOR TIME STEP   2 IN STRESS PERIOD   17
     6 TOTAL ITERATIONS
     2 CALLS TO PCG ROUTINE FOR TIME STEP   2 IN STRESS PERIOD   17
     5 TOTAL ITERATIONS
     2 CALLS TO PCG ROUTINE FOR TIME STEP   2 IN STRESS PERIOD   17
     4 TOTAL ITERATIONS
     2 CALLS TO PCG ROUTINE FOR TIME STEP   2 IN STRESS PERIOD   17
     4 TOTAL ITERATIONS
     2 CALLS TO PCG ROUTINE FOR TIME STEP   2 IN STRESS PERIOD   17
     3 TOTAL ITERATIONS

 OUTPUT CONTROL FOR STRESS PERIOD     17   TIME STEP     2
    SAVE BUDGET
 UBDSV1 SAVING "         STORAGE" ON UNIT7013 AT TIME STEP    2, STRESS PERIOD  17
 UBDSV2 SAVING "   CONSTANT HEAD" ON UNIT7013 AT TIME STEP    2, STRESS PERIOD  17
 UBDSV1 SAVING "FLOW RIGHT FACE " ON UNIT7013 AT TIME STEP    2, STRESS PERIOD  17
 UBDSV1 SAVING "FLOW FRONT FACE " ON UNIT7013 AT TIME STEP    2, STRESS PERIOD  17
 UBDSV1 SAVING "FLOW LOWER FACE " ON UNIT7013 AT TIME STEP    2, STRESS PERIOD  17
 UBDSV4 SAVING "  STREAM LEAKAGE" ON UNIT7013 AT TIME STEP    2, STRESS PERIOD  17



 UBDSV3 SAVING "FARM  NET  RECH." ON UNIT7013 AT TIME STEP    2, STRESS PERIOD  17
 UBDSV4 SAVING " GHOST-NODE HEAD" ON UNIT7013 AT TIME STEP    2, STRESS PERIOD  17
1
  VOLUMETRIC BUDGET FOR ENTIRE MODEL AT END OF TIME STEP    2 IN STRESS PERIOD     17
  ------------------------------------------------------------------------------

     CUMULATIVE VOLUMES      L**3       RATES FOR THIS TIME STEP      L**3/T
     ------------------                 ------------------------

           IN:                                      IN:
           ---                                      ---
             STORAGE =      175701.5781               STORAGE =         990.0028
       CONSTANT HEAD =           0.0000         CONSTANT HEAD =           0.0000
      STREAM LEAKAGE =      157921.7344        STREAM LEAKAGE =         658.1655
          FARM WELLS =           0.0000            FARM WELLS =           0.0000
    FARM  NET  RECH. =      276859.6562      FARM  NET  RECH. =           0.0000
     GHOST-NODE HEAD =     1307272.0000       GHOST-NODE HEAD =        1707.9877

            TOTAL IN =     1917755.0000              TOTAL IN =        3356.1558

          OUT:                                     OUT:
          ----                                     ----
             STORAGE =       71749.7969               STORAGE =           0.0000
       CONSTANT HEAD =           0.0000         CONSTANT HEAD =           0.0000
      STREAM LEAKAGE =      111515.4375        STREAM LEAKAGE =           0.0000
          FARM WELLS =       45434.2578            FARM WELLS =           0.0000
    FARM  NET  RECH. =        3628.1860      FARM  NET  RECH. =           0.0000
     GHOST-NODE HEAD =     1685426.5000       GHOST-NODE HEAD =        3356.1167

           TOTAL OUT =     1917754.2500             TOTAL OUT =        3356.1167

            IN - OUT =           0.7500              IN - OUT =       3.9062E-02

 PERCENT DISCREPANCY =           0.00     PERCENT DISCREPANCY =           0.00






          TIME SUMMARY AT END OF TIME STEP     2 IN STRESS PERIOD     17
                    SECONDS     MINUTES      HOURS       DAYS        YEARS
                    -----------------------------------------------------------
   TIME STEP LENGTH 1.31414E+06  21902.      365.04      15.210     4.16427E-02
 STRESS PERIOD TIME 2.62829E+06  43805.      730.08      30.420     8.32854E-02
         TOTAL TIME 4.46809E+07 7.44681E+05  12411.      517.14      1.4159    
1
1
  FLUX ACROSS PARENT-CHILD INTERFACE AT TIME STEP  2 IN STRESS PERIOD   17
  ------------------------------------------------------------------------
 G-N FLUX        PARENT        CHILD         DIFFERENCE      % DIFFERENCE
  RATE IN:      1.7080E+03    1.7080E+03    -3.5645E-02       -0.0021
 RATE OUT:      3.3567E+03    3.3561E+03     6.2256E-01        0.0185
1
                            STRESS PERIOD NO.     18, LENGTH =   30.42000    
                            -----------------------------------------------

                              NUMBER OF TIME STEPS =     2

                               MULTIPLIER FOR DELT =     1.000

                            INITIAL TIME STEP SIZE =   15.21000    

 REUSING STREAM SEGMENT DATA FROM LAST STRESS PERIOD

 Parameter:  WELLS1
 WELL NO. LAYER    ROW    COL  F-WELL ID    FARM ID         QMAX         QMAXRESET       LGRGRID         
 --------------------------------------------------------------------------------------------------------
       1      1      2      2          5          2      2.0000E+03              0              0
       2      1      5      5          6          2      1.0000E+03              0              0

 NUMBER OF ACTIVE FARM WELLS:        2

 FARM-ID  NUMBER OF WELLS PER FARM  TOTAL MAX.CAPACITY PER FARM
       1                         0                       0.0000
       2                         2                    3000.0000
       3                         0                       0.0000
       4                         0                       0.0000
       5                         0                       0.0000
       6                         0                       0.0000
       7                         0                       0.0000
       8                         0                       0.0000

Transpiratory and Evaporative Fractions of Crop Consumptive Use
    % Transpiration % Evap. for Precip. % Evap. for Irrig.
    3          0.000          1.000          1.000
    5          0.927          0.073          0.000

FRACTIONS OF IN-EFFICIENT LOSSES TO SW-RUNOFF FROM 
     PRECIPITATION:  IRRIGATION:
    3          0.600          0.500
    5          0.500          0.000
 
 SOLVING FOR HEAD 


     3 CALLS TO PCG ROUTINE FOR TIME STEP   1 IN STRESS PERIOD   18
    11 TOTAL ITERATIONS


     3 CALLS TO PCG ROUTINE FOR TIME STEP   1 IN STRESS PERIOD   18
    12 TOTAL ITERATIONS


     3 CALLS TO PCG ROUTINE FOR TIME STEP   1 IN STRESS PERIOD   18
    10 TOTAL ITERATIONS


     2 CALLS TO PCG ROUTINE FOR TIME STEP   1 IN STRESS PERIOD   18
     7 TOTAL ITERATIONS


     2 CALLS TO PCG ROUTINE FOR TIME STEP   1 IN STRESS PERIOD   18
     7 TOTAL ITERATIONS


     2 CALLS TO PCG ROUTINE FOR TIME STEP   1 IN STRESS PERIOD   18
     6 TOTAL ITERATIONS


     2 CALLS TO PCG ROUTINE FOR TIME STEP   1 IN STRESS PERIOD   18
     5 TOTAL ITERATIONS


     2 CALLS TO PCG ROUTINE FOR TIME STEP   1 IN STRESS PERIOD   18
     4 TOTAL ITERATIONS


     2 CALLS TO PCG ROUTINE FOR TIME STEP   1 IN STRESS PERIOD   18
     4 TOTAL ITERATIONS


     2 CALLS TO PCG ROUTINE FOR TIME STEP   1 IN STRESS PERIOD   18
     4 TOTAL ITERATIONS


     2 CALLS TO PCG ROUTINE FOR TIME STEP   1 IN STRESS PERIOD   18
     3 TOTAL ITERATIONS


     2 CALLS TO PCG ROUTINE FOR TIME STEP   1 IN STRESS PERIOD   18
     3 TOTAL ITERATIONS

 OUTPUT CONTROL FOR STRESS PERIOD     18   TIME STEP     1
    SAVE BUDGET
 UBDSV1 SAVING "         STORAGE" ON UNIT7013 AT TIME STEP    1, STRESS PERIOD  18
 UBDSV2 SAVING "   CONSTANT HEAD" ON UNIT7013 AT TIME STEP    1, STRESS PERIOD  18
 UBDSV1 SAVING "FLOW RIGHT FACE " ON UNIT7013 AT TIME STEP    1, STRESS PERIOD  18
 UBDSV1 SAVING "FLOW FRONT FACE " ON UNIT7013 AT TIME STEP    1, STRESS PERIOD  18
 UBDSV1 SAVING "FLOW LOWER FACE " ON UNIT7013 AT TIME STEP    1, STRESS PERIOD  18
 UBDSV4 SAVING "  STREAM LEAKAGE" ON UNIT7013 AT TIME STEP    1, STRESS PERIOD  18



 UBDSV3 SAVING "FARM  NET  RECH." ON UNIT7013 AT TIME STEP    1, STRESS PERIOD  18
 UBDSV4 SAVING " GHOST-NODE HEAD" ON UNIT7013 AT TIME STEP    1, STRESS PERIOD  18
1
  FLUX ACROSS PARENT-CHILD INTERFACE AT TIME STEP  1 IN STRESS PERIOD   18
  ------------------------------------------------------------------------
 G-N FLUX        PARENT        CHILD         DIFFERENCE      % DIFFERENCE
  RATE IN:      1.6106E+03    1.6106E+03     7.2876E-02        0.0045
 RATE OUT:      3.1442E+03    3.1441E+03     1.1865E-01        0.0038
 
 SOLVING FOR HEAD 
     3 CALLS TO PCG ROUTINE FOR TIME STEP   2 IN STRESS PERIOD   18
    10 TOTAL ITERATIONS
     6 CALLS TO PCG ROUTINE FOR TIME STEP   2 IN STRESS PERIOD   18
    24 TOTAL ITERATIONS
     5 CALLS TO PCG ROUTINE FOR TIME STEP   2 IN STRESS PERIOD   18
    19 TOTAL ITERATIONS
     2 CALLS TO PCG ROUTINE FOR TIME STEP   2 IN STRESS PERIOD   18
     7 TOTAL ITERATIONS
     2 CALLS TO PCG ROUTINE FOR TIME STEP   2 IN STRESS PERIOD   18
     7 TOTAL ITERATIONS
     2 CALLS TO PCG ROUTINE FOR TIME STEP   2 IN STRESS PERIOD   18
     6 TOTAL ITERATIONS
     2 CALLS TO PCG ROUTINE FOR TIME STEP   2 IN STRESS PERIOD   18
     6 TOTAL ITERATIONS
     2 CALLS TO PCG ROUTINE FOR TIME STEP   2 IN STRESS PERIOD   18
     5 TOTAL ITERATIONS
     2 CALLS TO PCG ROUTINE FOR TIME STEP   2 IN STRESS PERIOD   18
     4 TOTAL ITERATIONS
     2 CALLS TO PCG ROUTINE FOR TIME STEP   2 IN STRESS PERIOD   18
     4 TOTAL ITERATIONS
     2 CALLS TO PCG ROUTINE FOR TIME STEP   2 IN STRESS PERIOD   18
     3 TOTAL ITERATIONS

 OUTPUT CONTROL FOR STRESS PERIOD     18   TIME STEP     2
    PRINT BUDGET
    SAVE HEAD FOR ALL LAYERS
    SAVE BUDGET
 UBDSV1 SAVING "         STORAGE" ON UNIT7013 AT TIME STEP    2, STRESS PERIOD  18
 UBDSV2 SAVING "   CONSTANT HEAD" ON UNIT7013 AT TIME STEP    2, STRESS PERIOD  18
 UBDSV1 SAVING "FLOW RIGHT FACE " ON UNIT7013 AT TIME STEP    2, STRESS PERIOD  18
 UBDSV1 SAVING "FLOW FRONT FACE " ON UNIT7013 AT TIME STEP    2, STRESS PERIOD  18
 UBDSV1 SAVING "FLOW LOWER FACE " ON UNIT7013 AT TIME STEP    2, STRESS PERIOD  18
 UBDSV4 SAVING "  STREAM LEAKAGE" ON UNIT7013 AT TIME STEP    2, STRESS PERIOD  18



 UBDSV3 SAVING "FARM  NET  RECH." ON UNIT7013 AT TIME STEP    2, STRESS PERIOD  18
 UBDSV4 SAVING " GHOST-NODE HEAD" ON UNIT7013 AT TIME STEP    2, STRESS PERIOD  18

 HEAD WILL BE SAVED ON UNIT 2213 AT END OF TIME STEP     2, STRESS PERIOD     18
1
  VOLUMETRIC BUDGET FOR ENTIRE MODEL AT END OF TIME STEP    2 IN STRESS PERIOD     18
  ------------------------------------------------------------------------------

     CUMULATIVE VOLUMES      L**3       RATES FOR THIS TIME STEP      L**3/T
     ------------------                 ------------------------

           IN:                                      IN:
           ---                                      ---
             STORAGE =      194895.3281               STORAGE =         603.3683
       CONSTANT HEAD =           0.0000         CONSTANT HEAD =           0.0000
      STREAM LEAKAGE =      187591.8125        STREAM LEAKAGE =        1075.7166
          FARM WELLS =           0.0000            FARM WELLS =           0.0000
    FARM  NET  RECH. =      276859.6562      FARM  NET  RECH. =           0.0000
     GHOST-NODE HEAD =     1355417.7500       GHOST-NODE HEAD =        1554.8348

            TOTAL IN =     2014764.5000              TOTAL IN =        3233.9197

          OUT:                                     OUT:
          ----                                     ----
             STORAGE =       71749.7969               STORAGE =           0.0000
       CONSTANT HEAD =           0.0000         CONSTANT HEAD =           0.0000
      STREAM LEAKAGE =      111515.4375        STREAM LEAKAGE =           0.0000
          FARM WELLS =       45434.2578            FARM WELLS =           0.0000
    FARM  NET  RECH. =        3628.1860      FARM  NET  RECH. =           0.0000
     GHOST-NODE HEAD =     1782435.7500       GHOST-NODE HEAD =        3233.9097

           TOTAL OUT =     2014763.5000             TOTAL OUT =        3233.9097

            IN - OUT =           1.0000              IN - OUT =       1.0010E-02

 PERCENT DISCREPANCY =           0.00     PERCENT DISCREPANCY =           0.00






          TIME SUMMARY AT END OF TIME STEP     2 IN STRESS PERIOD     18
                    SECONDS     MINUTES      HOURS       DAYS        YEARS
                    -----------------------------------------------------------
   TIME STEP LENGTH 1.31414E+06  21902.      365.04      15.210     4.16427E-02
 STRESS PERIOD TIME 2.62829E+06  43805.      730.08      30.420     8.32854E-02
         TOTAL TIME 4.73092E+07 7.88486E+05  13141.      547.56      1.4991    
1
1
  FLUX ACROSS PARENT-CHILD INTERFACE AT TIME STEP  2 IN STRESS PERIOD   18
  ------------------------------------------------------------------------
 G-N FLUX        PARENT        CHILD         DIFFERENCE      % DIFFERENCE
  RATE IN:      1.5547E+03    1.5548E+03    -1.5222E-01       -0.0098
 RATE OUT:      3.2357E+03    3.2339E+03     1.7783E+00        0.0550
1
                            STRESS PERIOD NO.     19, LENGTH =   30.42000    
                            -----------------------------------------------

                              NUMBER OF TIME STEPS =     2

                               MULTIPLIER FOR DELT =     1.000

                            INITIAL TIME STEP SIZE =   15.21000    

 REUSING STREAM SEGMENT DATA FROM LAST STRESS PERIOD

 Parameter:  WELLS1
 WELL NO. LAYER    ROW    COL  F-WELL ID    FARM ID         QMAX         QMAXRESET       LGRGRID         
 --------------------------------------------------------------------------------------------------------
       1      1      2      2          5          2      2.0000E+03              0              0
       2      1      5      5          6          2      1.0000E+03              0              0

 NUMBER OF ACTIVE FARM WELLS:        2

 FARM-ID  NUMBER OF WELLS PER FARM  TOTAL MAX.CAPACITY PER FARM
       1                         0                       0.0000
       2                         2                    3000.0000
       3                         0                       0.0000
       4                         0                       0.0000
       5                         0                       0.0000
       6                         0                       0.0000
       7                         0                       0.0000
       8                         0                       0.0000

Transpiratory and Evaporative Fractions of Crop Consumptive Use
    % Transpiration % Evap. for Precip. % Evap. for Irrig.
    3          0.000          1.000          1.000
    5          0.927          0.073          0.000

FRACTIONS OF IN-EFFICIENT LOSSES TO SW-RUNOFF FROM 
     PRECIPITATION:  IRRIGATION:
    3          0.600          0.500
    5          0.500          0.000
 
 SOLVING FOR HEAD 


     3 CALLS TO PCG ROUTINE FOR TIME STEP   1 IN STRESS PERIOD   19
    10 TOTAL ITERATIONS


     3 CALLS TO PCG ROUTINE FOR TIME STEP   1 IN STRESS PERIOD   19
    13 TOTAL ITERATIONS


     3 CALLS TO PCG ROUTINE FOR TIME STEP   1 IN STRESS PERIOD   19
     9 TOTAL ITERATIONS


     2 CALLS TO PCG ROUTINE FOR TIME STEP   1 IN STRESS PERIOD   19
     8 TOTAL ITERATIONS


     2 CALLS TO PCG ROUTINE FOR TIME STEP   1 IN STRESS PERIOD   19
     7 TOTAL ITERATIONS


     2 CALLS TO PCG ROUTINE FOR TIME STEP   1 IN STRESS PERIOD   19
     6 TOTAL ITERATIONS


     2 CALLS TO PCG ROUTINE FOR TIME STEP   1 IN STRESS PERIOD   19
     5 TOTAL ITERATIONS


     2 CALLS TO PCG ROUTINE FOR TIME STEP   1 IN STRESS PERIOD   19
     5 TOTAL ITERATIONS


     2 CALLS TO PCG ROUTINE FOR TIME STEP   1 IN STRESS PERIOD   19
     5 TOTAL ITERATIONS


     2 CALLS TO PCG ROUTINE FOR TIME STEP   1 IN STRESS PERIOD   19
     3 TOTAL ITERATIONS


     2 CALLS TO PCG ROUTINE FOR TIME STEP   1 IN STRESS PERIOD   19
     3 TOTAL ITERATIONS


     2 CALLS TO PCG ROUTINE FOR TIME STEP   1 IN STRESS PERIOD   19
     3 TOTAL ITERATIONS

 OUTPUT CONTROL FOR STRESS PERIOD     19   TIME STEP     1
    SAVE BUDGET
 UBDSV1 SAVING "         STORAGE" ON UNIT7013 AT TIME STEP    1, STRESS PERIOD  19
 UBDSV2 SAVING "   CONSTANT HEAD" ON UNIT7013 AT TIME STEP    1, STRESS PERIOD  19
 UBDSV1 SAVING "FLOW RIGHT FACE " ON UNIT7013 AT TIME STEP    1, STRESS PERIOD  19
 UBDSV1 SAVING "FLOW FRONT FACE " ON UNIT7013 AT TIME STEP    1, STRESS PERIOD  19
 UBDSV1 SAVING "FLOW LOWER FACE " ON UNIT7013 AT TIME STEP    1, STRESS PERIOD  19
 UBDSV4 SAVING "  STREAM LEAKAGE" ON UNIT7013 AT TIME STEP    1, STRESS PERIOD  19



 UBDSV3 SAVING "FARM  NET  RECH." ON UNIT7013 AT TIME STEP    1, STRESS PERIOD  19
 UBDSV4 SAVING " GHOST-NODE HEAD" ON UNIT7013 AT TIME STEP    1, STRESS PERIOD  19
1
  FLUX ACROSS PARENT-CHILD INTERFACE AT TIME STEP  1 IN STRESS PERIOD   19
  ------------------------------------------------------------------------
 G-N FLUX        PARENT        CHILD         DIFFERENCE      % DIFFERENCE
  RATE IN:      2.0529E+03    2.0526E+03     2.4805E-01        0.0121
 RATE OUT:      3.0138E+03    3.0136E+03     2.0801E-01        0.0069
 
 SOLVING FOR HEAD 
     6 CALLS TO PCG ROUTINE FOR TIME STEP   2 IN STRESS PERIOD   19
    29 TOTAL ITERATIONS
     3 CALLS TO PCG ROUTINE FOR TIME STEP   2 IN STRESS PERIOD   19
    13 TOTAL ITERATIONS
     3 CALLS TO PCG ROUTINE FOR TIME STEP   2 IN STRESS PERIOD   19
     9 TOTAL ITERATIONS
     2 CALLS TO PCG ROUTINE FOR TIME STEP   2 IN STRESS PERIOD   19
     7 TOTAL ITERATIONS
     2 CALLS TO PCG ROUTINE FOR TIME STEP   2 IN STRESS PERIOD   19
     7 TOTAL ITERATIONS
     2 CALLS TO PCG ROUTINE FOR TIME STEP   2 IN STRESS PERIOD   19
     6 TOTAL ITERATIONS
     2 CALLS TO PCG ROUTINE FOR TIME STEP   2 IN STRESS PERIOD   19
     5 TOTAL ITERATIONS
     2 CALLS TO PCG ROUTINE FOR TIME STEP   2 IN STRESS PERIOD   19
     5 TOTAL ITERATIONS
     2 CALLS TO PCG ROUTINE FOR TIME STEP   2 IN STRESS PERIOD   19
     4 TOTAL ITERATIONS
     2 CALLS TO PCG ROUTINE FOR TIME STEP   2 IN STRESS PERIOD   19
     4 TOTAL ITERATIONS
     2 CALLS TO PCG ROUTINE FOR TIME STEP   2 IN STRESS PERIOD   19
     3 TOTAL ITERATIONS

 OUTPUT CONTROL FOR STRESS PERIOD     19   TIME STEP     2
    SAVE BUDGET
 UBDSV1 SAVING "         STORAGE" ON UNIT7013 AT TIME STEP    2, STRESS PERIOD  19
 UBDSV2 SAVING "   CONSTANT HEAD" ON UNIT7013 AT TIME STEP    2, STRESS PERIOD  19
 UBDSV1 SAVING "FLOW RIGHT FACE " ON UNIT7013 AT TIME STEP    2, STRESS PERIOD  19
 UBDSV1 SAVING "FLOW FRONT FACE " ON UNIT7013 AT TIME STEP    2, STRESS PERIOD  19
 UBDSV1 SAVING "FLOW LOWER FACE " ON UNIT7013 AT TIME STEP    2, STRESS PERIOD  19
 UBDSV4 SAVING "  STREAM LEAKAGE" ON UNIT7013 AT TIME STEP    2, STRESS PERIOD  19



 UBDSV3 SAVING "FARM  NET  RECH." ON UNIT7013 AT TIME STEP    2, STRESS PERIOD  19
 UBDSV4 SAVING " GHOST-NODE HEAD" ON UNIT7013 AT TIME STEP    2, STRESS PERIOD  19
1
  VOLUMETRIC BUDGET FOR ENTIRE MODEL AT END OF TIME STEP    2 IN STRESS PERIOD     19
  ------------------------------------------------------------------------------

     CUMULATIVE VOLUMES      L**3       RATES FOR THIS TIME STEP      L**3/T
     ------------------                 ------------------------

           IN:                                      IN:
           ---                                      ---
             STORAGE =      222207.9219               STORAGE =         834.6516
       CONSTANT HEAD =           0.0000         CONSTANT HEAD =           0.0000
      STREAM LEAKAGE =      187591.8125        STREAM LEAKAGE =           0.0000
          FARM WELLS =           0.0000            FARM WELLS =           0.0000
    FARM  NET  RECH. =      276859.6562      FARM  NET  RECH. =           0.0000
     GHOST-NODE HEAD =     1419034.7500       GHOST-NODE HEAD =        2129.9675

            TOTAL IN =     2105694.0000              TOTAL IN =        2964.6191

          OUT:                                     OUT:
          ----                                     ----
             STORAGE =       71749.7969               STORAGE =           0.0000
       CONSTANT HEAD =           0.0000         CONSTANT HEAD =           0.0000
      STREAM LEAKAGE =      111515.4375        STREAM LEAKAGE =           0.0000
          FARM WELLS =       45434.2578            FARM WELLS =           0.0000
    FARM  NET  RECH. =        3628.1860      FARM  NET  RECH. =           0.0000
     GHOST-NODE HEAD =     1873364.5000       GHOST-NODE HEAD =        2964.5889

           TOTAL OUT =     2105692.2500             TOTAL OUT =        2964.5889

            IN - OUT =           1.7500              IN - OUT =       3.0273E-02

 PERCENT DISCREPANCY =           0.00     PERCENT DISCREPANCY =           0.00






          TIME SUMMARY AT END OF TIME STEP     2 IN STRESS PERIOD     19
                    SECONDS     MINUTES      HOURS       DAYS        YEARS
                    -----------------------------------------------------------
   TIME STEP LENGTH 1.31414E+06  21902.      365.04      15.210     4.16427E-02
 STRESS PERIOD TIME 2.62829E+06  43805.      730.08      30.420     8.32854E-02
         TOTAL TIME 4.99375E+07 8.32291E+05  13872.      577.98      1.5824    
1
1
  FLUX ACROSS PARENT-CHILD INTERFACE AT TIME STEP  2 IN STRESS PERIOD   19
  ------------------------------------------------------------------------
 G-N FLUX        PARENT        CHILD         DIFFERENCE      % DIFFERENCE
  RATE IN:      2.1306E+03    2.1300E+03     6.5894E-01        0.0309
 RATE OUT:      2.9654E+03    2.9646E+03     7.7246E-01        0.0261
1
                            STRESS PERIOD NO.     20, LENGTH =   30.42000    
                            -----------------------------------------------

                              NUMBER OF TIME STEPS =     2

                               MULTIPLIER FOR DELT =     1.000

                            INITIAL TIME STEP SIZE =   15.21000    

 REUSING STREAM SEGMENT DATA FROM LAST STRESS PERIOD

 Parameter:  WELLS1
 WELL NO. LAYER    ROW    COL  F-WELL ID    FARM ID         QMAX         QMAXRESET       LGRGRID         
 --------------------------------------------------------------------------------------------------------
       1      1      2      2          5          2      2.0000E+03              0              0
       2      1      5      5          6          2      1.0000E+03              0              0

 NUMBER OF ACTIVE FARM WELLS:        2

 FARM-ID  NUMBER OF WELLS PER FARM  TOTAL MAX.CAPACITY PER FARM
       1                         0                       0.0000
       2                         2                    3000.0000
       3                         0                       0.0000
       4                         0                       0.0000
       5                         0                       0.0000
       6                         0                       0.0000
       7                         0                       0.0000
       8                         0                       0.0000

Transpiratory and Evaporative Fractions of Crop Consumptive Use
    % Transpiration % Evap. for Precip. % Evap. for Irrig.
    3          0.000          1.000          1.000
    5          0.927          0.073          0.000

FRACTIONS OF IN-EFFICIENT LOSSES TO SW-RUNOFF FROM 
     PRECIPITATION:  IRRIGATION:
    3          0.600          0.500
    5          0.500          0.000
 
 SOLVING FOR HEAD 


     3 CALLS TO PCG ROUTINE FOR TIME STEP   1 IN STRESS PERIOD   20
    12 TOTAL ITERATIONS


     3 CALLS TO PCG ROUTINE FOR TIME STEP   1 IN STRESS PERIOD   20
    11 TOTAL ITERATIONS


     3 CALLS TO PCG ROUTINE FOR TIME STEP   1 IN STRESS PERIOD   20
     9 TOTAL ITERATIONS


     2 CALLS TO PCG ROUTINE FOR TIME STEP   1 IN STRESS PERIOD   20
     8 TOTAL ITERATIONS


     2 CALLS TO PCG ROUTINE FOR TIME STEP   1 IN STRESS PERIOD   20
     7 TOTAL ITERATIONS


     2 CALLS TO PCG ROUTINE FOR TIME STEP   1 IN STRESS PERIOD   20
     7 TOTAL ITERATIONS


     2 CALLS TO PCG ROUTINE FOR TIME STEP   1 IN STRESS PERIOD   20
     5 TOTAL ITERATIONS


     2 CALLS TO PCG ROUTINE FOR TIME STEP   1 IN STRESS PERIOD   20
     5 TOTAL ITERATIONS


     2 CALLS TO PCG ROUTINE FOR TIME STEP   1 IN STRESS PERIOD   20
     5 TOTAL ITERATIONS


     2 CALLS TO PCG ROUTINE FOR TIME STEP   1 IN STRESS PERIOD   20
     4 TOTAL ITERATIONS


     2 CALLS TO PCG ROUTINE FOR TIME STEP   1 IN STRESS PERIOD   20
     3 TOTAL ITERATIONS

 OUTPUT CONTROL FOR STRESS PERIOD     20   TIME STEP     1
    SAVE BUDGET
 UBDSV1 SAVING "         STORAGE" ON UNIT7013 AT TIME STEP    1, STRESS PERIOD  20
 UBDSV2 SAVING "   CONSTANT HEAD" ON UNIT7013 AT TIME STEP    1, STRESS PERIOD  20
 UBDSV1 SAVING "FLOW RIGHT FACE " ON UNIT7013 AT TIME STEP    1, STRESS PERIOD  20
 UBDSV1 SAVING "FLOW FRONT FACE " ON UNIT7013 AT TIME STEP    1, STRESS PERIOD  20
 UBDSV1 SAVING "FLOW LOWER FACE " ON UNIT7013 AT TIME STEP    1, STRESS PERIOD  20
 UBDSV4 SAVING "  STREAM LEAKAGE" ON UNIT7013 AT TIME STEP    1, STRESS PERIOD  20



 UBDSV3 SAVING "FARM  NET  RECH." ON UNIT7013 AT TIME STEP    1, STRESS PERIOD  20
 UBDSV4 SAVING " GHOST-NODE HEAD" ON UNIT7013 AT TIME STEP    1, STRESS PERIOD  20
1
  FLUX ACROSS PARENT-CHILD INTERFACE AT TIME STEP  1 IN STRESS PERIOD   20
  ------------------------------------------------------------------------
 G-N FLUX        PARENT        CHILD         DIFFERENCE      % DIFFERENCE
  RATE IN:      2.1888E+03    2.1882E+03     5.5859E-01        0.0255
 RATE OUT:      2.9794E+03    2.9782E+03     1.1292E+00        0.0379
 
 SOLVING FOR HEAD 
     3 CALLS TO PCG ROUTINE FOR TIME STEP   2 IN STRESS PERIOD   20
    11 TOTAL ITERATIONS
     3 CALLS TO PCG ROUTINE FOR TIME STEP   2 IN STRESS PERIOD   20
    11 TOTAL ITERATIONS
     3 CALLS TO PCG ROUTINE FOR TIME STEP   2 IN STRESS PERIOD   20
     9 TOTAL ITERATIONS
     2 CALLS TO PCG ROUTINE FOR TIME STEP   2 IN STRESS PERIOD   20
     8 TOTAL ITERATIONS
     2 CALLS TO PCG ROUTINE FOR TIME STEP   2 IN STRESS PERIOD   20
     7 TOTAL ITERATIONS
     2 CALLS TO PCG ROUTINE FOR TIME STEP   2 IN STRESS PERIOD   20
     7 TOTAL ITERATIONS
     2 CALLS TO PCG ROUTINE FOR TIME STEP   2 IN STRESS PERIOD   20
     5 TOTAL ITERATIONS
     2 CALLS TO PCG ROUTINE FOR TIME STEP   2 IN STRESS PERIOD   20
     5 TOTAL ITERATIONS
     2 CALLS TO PCG ROUTINE FOR TIME STEP   2 IN STRESS PERIOD   20
     5 TOTAL ITERATIONS
     2 CALLS TO PCG ROUTINE FOR TIME STEP   2 IN STRESS PERIOD   20
     4 TOTAL ITERATIONS
     2 CALLS TO PCG ROUTINE FOR TIME STEP   2 IN STRESS PERIOD   20
     3 TOTAL ITERATIONS

 OUTPUT CONTROL FOR STRESS PERIOD     20   TIME STEP     2
    SAVE BUDGET
 UBDSV1 SAVING "         STORAGE" ON UNIT7013 AT TIME STEP    2, STRESS PERIOD  20
 UBDSV2 SAVING "   CONSTANT HEAD" ON UNIT7013 AT TIME STEP    2, STRESS PERIOD  20
 UBDSV1 SAVING "FLOW RIGHT FACE " ON UNIT7013 AT TIME STEP    2, STRESS PERIOD  20
 UBDSV1 SAVING "FLOW FRONT FACE " ON UNIT7013 AT TIME STEP    2, STRESS PERIOD  20
 UBDSV1 SAVING "FLOW LOWER FACE " ON UNIT7013 AT TIME STEP    2, STRESS PERIOD  20
 UBDSV4 SAVING "  STREAM LEAKAGE" ON UNIT7013 AT TIME STEP    2, STRESS PERIOD  20



 UBDSV3 SAVING "FARM  NET  RECH." ON UNIT7013 AT TIME STEP    2, STRESS PERIOD  20
 UBDSV4 SAVING " GHOST-NODE HEAD" ON UNIT7013 AT TIME STEP    2, STRESS PERIOD  20
1
  VOLUMETRIC BUDGET FOR ENTIRE MODEL AT END OF TIME STEP    2 IN STRESS PERIOD     20
  ------------------------------------------------------------------------------

     CUMULATIVE VOLUMES      L**3       RATES FOR THIS TIME STEP      L**3/T
     ------------------                 ------------------------

           IN:                                      IN:
           ---                                      ---
             STORAGE =      245748.8125               STORAGE =         757.6506
       CONSTANT HEAD =           0.0000         CONSTANT HEAD =           0.0000
      STREAM LEAKAGE =      187591.8125        STREAM LEAKAGE =           0.0000
          FARM WELLS =           0.0000            FARM WELLS =           0.0000
    FARM  NET  RECH. =      276859.6562      FARM  NET  RECH. =           0.0000
     GHOST-NODE HEAD =     1486232.1250       GHOST-NODE HEAD =        2229.7612

            TOTAL IN =     2196432.5000              TOTAL IN =        2987.4119

          OUT:                                     OUT:
          ----                                     ----
             STORAGE =       71749.7969               STORAGE =           0.0000
       CONSTANT HEAD =           0.0000         CONSTANT HEAD =           0.0000
      STREAM LEAKAGE =      111515.4375        STREAM LEAKAGE =           0.0000
          FARM WELLS =       45434.2578            FARM WELLS =           0.0000
    FARM  NET  RECH. =        3628.1860      FARM  NET  RECH. =           0.0000
     GHOST-NODE HEAD =     1964101.6250       GHOST-NODE HEAD =        2987.3743

           TOTAL OUT =     2196429.2500             TOTAL OUT =        2987.3743

            IN - OUT =           3.2500              IN - OUT =       3.7598E-02

 PERCENT DISCREPANCY =           0.00     PERCENT DISCREPANCY =           0.00






          TIME SUMMARY AT END OF TIME STEP     2 IN STRESS PERIOD     20
                    SECONDS     MINUTES      HOURS       DAYS        YEARS
                    -----------------------------------------------------------
   TIME STEP LENGTH 1.31414E+06  21902.      365.04      15.210     4.16427E-02
 STRESS PERIOD TIME 2.62829E+06  43805.      730.08      30.420     8.32854E-02
         TOTAL TIME 5.25658E+07 8.76096E+05  14602.      608.40      1.6657    
1
1
  FLUX ACROSS PARENT-CHILD INTERFACE AT TIME STEP  2 IN STRESS PERIOD   20
  ------------------------------------------------------------------------
 G-N FLUX        PARENT        CHILD         DIFFERENCE      % DIFFERENCE
  RATE IN:      2.2303E+03    2.2298E+03     5.8032E-01        0.0260
 RATE OUT:      2.9885E+03    2.9874E+03     1.1326E+00        0.0379
1
                            STRESS PERIOD NO.     21, LENGTH =   30.42000    
                            -----------------------------------------------

                              NUMBER OF TIME STEPS =     2

                               MULTIPLIER FOR DELT =     1.000

                            INITIAL TIME STEP SIZE =   15.21000    

 REUSING STREAM SEGMENT DATA FROM LAST STRESS PERIOD

 Parameter:  WELLS1
 WELL NO. LAYER    ROW    COL  F-WELL ID    FARM ID         QMAX         QMAXRESET       LGRGRID         
 --------------------------------------------------------------------------------------------------------
       1      1      2      2          5          2      2.0000E+03              0              0
       2      1      5      5          6          2      1.0000E+03              0              0

 NUMBER OF ACTIVE FARM WELLS:        2

 FARM-ID  NUMBER OF WELLS PER FARM  TOTAL MAX.CAPACITY PER FARM
       1                         0                       0.0000
       2                         2                    3000.0000
       3                         0                       0.0000
       4                         0                       0.0000
       5                         0                       0.0000
       6                         0                       0.0000
       7                         0                       0.0000
       8                         0                       0.0000

Transpiratory and Evaporative Fractions of Crop Consumptive Use
    % Transpiration % Evap. for Precip. % Evap. for Irrig.
    3          0.661          0.339          0.339
    5          0.927          0.073          0.000

FRACTIONS OF IN-EFFICIENT LOSSES TO SW-RUNOFF FROM 
     PRECIPITATION:  IRRIGATION:
    3          0.600          0.500
    5          0.500          0.000
 
 SOLVING FOR HEAD 


     6 CALLS TO PCG ROUTINE FOR TIME STEP   1 IN STRESS PERIOD   21
    27 TOTAL ITERATIONS


     3 CALLS TO PCG ROUTINE FOR TIME STEP   1 IN STRESS PERIOD   21
    13 TOTAL ITERATIONS


     2 CALLS TO PCG ROUTINE FOR TIME STEP   1 IN STRESS PERIOD   21
     7 TOTAL ITERATIONS


     2 CALLS TO PCG ROUTINE FOR TIME STEP   1 IN STRESS PERIOD   21
     7 TOTAL ITERATIONS


     2 CALLS TO PCG ROUTINE FOR TIME STEP   1 IN STRESS PERIOD   21
     7 TOTAL ITERATIONS


     2 CALLS TO PCG ROUTINE FOR TIME STEP   1 IN STRESS PERIOD   21
     6 TOTAL ITERATIONS


     2 CALLS TO PCG ROUTINE FOR TIME STEP   1 IN STRESS PERIOD   21
     6 TOTAL ITERATIONS


     2 CALLS TO PCG ROUTINE FOR TIME STEP   1 IN STRESS PERIOD   21
     4 TOTAL ITERATIONS


     2 CALLS TO PCG ROUTINE FOR TIME STEP   1 IN STRESS PERIOD   21
     4 TOTAL ITERATIONS


     2 CALLS TO PCG ROUTINE FOR TIME STEP   1 IN STRESS PERIOD   21
     4 TOTAL ITERATIONS


     2 CALLS TO PCG ROUTINE FOR TIME STEP   1 IN STRESS PERIOD   21
     3 TOTAL ITERATIONS

 OUTPUT CONTROL FOR STRESS PERIOD     21   TIME STEP     1
    SAVE BUDGET
 UBDSV1 SAVING "         STORAGE" ON UNIT7013 AT TIME STEP    1, STRESS PERIOD  21
 UBDSV2 SAVING "   CONSTANT HEAD" ON UNIT7013 AT TIME STEP    1, STRESS PERIOD  21
 UBDSV1 SAVING "FLOW RIGHT FACE " ON UNIT7013 AT TIME STEP    1, STRESS PERIOD  21
 UBDSV1 SAVING "FLOW FRONT FACE " ON UNIT7013 AT TIME STEP    1, STRESS PERIOD  21
 UBDSV1 SAVING "FLOW LOWER FACE " ON UNIT7013 AT TIME STEP    1, STRESS PERIOD  21
 UBDSV4 SAVING "  STREAM LEAKAGE" ON UNIT7013 AT TIME STEP    1, STRESS PERIOD  21



 UBDSV3 SAVING "FARM  NET  RECH." ON UNIT7013 AT TIME STEP    1, STRESS PERIOD  21
 UBDSV4 SAVING " GHOST-NODE HEAD" ON UNIT7013 AT TIME STEP    1, STRESS PERIOD  21
1
  FLUX ACROSS PARENT-CHILD INTERFACE AT TIME STEP  1 IN STRESS PERIOD   21
  ------------------------------------------------------------------------
 G-N FLUX        PARENT        CHILD         DIFFERENCE      % DIFFERENCE
  RATE IN:      1.8214E+03    1.8209E+03     4.9780E-01        0.0273
 RATE OUT:      2.9153E+03    2.9149E+03     3.7598E-01        0.0129
 
 SOLVING FOR HEAD 
     7 CALLS TO PCG ROUTINE FOR TIME STEP   2 IN STRESS PERIOD   21
    31 TOTAL ITERATIONS
     3 CALLS TO PCG ROUTINE FOR TIME STEP   2 IN STRESS PERIOD   21
    14 TOTAL ITERATIONS
     3 CALLS TO PCG ROUTINE FOR TIME STEP   2 IN STRESS PERIOD   21
     9 TOTAL ITERATIONS
     2 CALLS TO PCG ROUTINE FOR TIME STEP   2 IN STRESS PERIOD   21
     7 TOTAL ITERATIONS
     2 CALLS TO PCG ROUTINE FOR TIME STEP   2 IN STRESS PERIOD   21
     7 TOTAL ITERATIONS
     2 CALLS TO PCG ROUTINE FOR TIME STEP   2 IN STRESS PERIOD   21
     6 TOTAL ITERATIONS
     2 CALLS TO PCG ROUTINE FOR TIME STEP   2 IN STRESS PERIOD   21
     6 TOTAL ITERATIONS
     2 CALLS TO PCG ROUTINE FOR TIME STEP   2 IN STRESS PERIOD   21
     5 TOTAL ITERATIONS
     2 CALLS TO PCG ROUTINE FOR TIME STEP   2 IN STRESS PERIOD   21
     4 TOTAL ITERATIONS
     2 CALLS TO PCG ROUTINE FOR TIME STEP   2 IN STRESS PERIOD   21
     4 TOTAL ITERATIONS
     2 CALLS TO PCG ROUTINE FOR TIME STEP   2 IN STRESS PERIOD   21
     3 TOTAL ITERATIONS

 OUTPUT CONTROL FOR STRESS PERIOD     21   TIME STEP     2
    PRINT BUDGET
    SAVE HEAD FOR ALL LAYERS
    SAVE BUDGET
 UBDSV1 SAVING "         STORAGE" ON UNIT7013 AT TIME STEP    2, STRESS PERIOD  21
 UBDSV2 SAVING "   CONSTANT HEAD" ON UNIT7013 AT TIME STEP    2, STRESS PERIOD  21
 UBDSV1 SAVING "FLOW RIGHT FACE " ON UNIT7013 AT TIME STEP    2, STRESS PERIOD  21
 UBDSV1 SAVING "FLOW FRONT FACE " ON UNIT7013 AT TIME STEP    2, STRESS PERIOD  21
 UBDSV1 SAVING "FLOW LOWER FACE " ON UNIT7013 AT TIME STEP    2, STRESS PERIOD  21
 UBDSV4 SAVING "  STREAM LEAKAGE" ON UNIT7013 AT TIME STEP    2, STRESS PERIOD  21



 UBDSV3 SAVING "FARM  NET  RECH." ON UNIT7013 AT TIME STEP    2, STRESS PERIOD  21
 UBDSV4 SAVING " GHOST-NODE HEAD" ON UNIT7013 AT TIME STEP    2, STRESS PERIOD  21

 HEAD WILL BE SAVED ON UNIT 2213 AT END OF TIME STEP     2, STRESS PERIOD     21
1
  VOLUMETRIC BUDGET FOR ENTIRE MODEL AT END OF TIME STEP    2 IN STRESS PERIOD     21
  ------------------------------------------------------------------------------

     CUMULATIVE VOLUMES      L**3       RATES FOR THIS TIME STEP      L**3/T
     ------------------                 ------------------------

           IN:                                      IN:
           ---                                      ---
             STORAGE =      256445.7188               STORAGE =         368.1866
       CONSTANT HEAD =           0.0000         CONSTANT HEAD =           0.0000
      STREAM LEAKAGE =      206824.4375        STREAM LEAKAGE =         632.2361
          FARM WELLS =           0.0000            FARM WELLS =           0.0000
    FARM  NET  RECH. =      296092.2812      FARM  NET  RECH. =         632.2361
     GHOST-NODE HEAD =     1540192.1250       GHOST-NODE HEAD =        1726.7308

            TOTAL IN =     2299554.5000              TOTAL IN =        3359.3896

          OUT:                                     OUT:
          ----                                     ----
             STORAGE =       73731.7188               STORAGE =           0.7295
       CONSTANT HEAD =           0.0000         CONSTANT HEAD =           0.0000
      STREAM LEAKAGE =      111515.4375        STREAM LEAKAGE =           0.0000
          FARM WELLS =       56872.3047            FARM WELLS =         376.0042
    FARM  NET  RECH. =        3628.1860      FARM  NET  RECH. =           0.0000
     GHOST-NODE HEAD =     2053804.0000       GHOST-NODE HEAD =        2982.6633

           TOTAL OUT =     2299551.7500             TOTAL OUT =        3359.3970

            IN - OUT =           2.7500              IN - OUT =      -7.3242E-03

 PERCENT DISCREPANCY =           0.00     PERCENT DISCREPANCY =          -0.00






          TIME SUMMARY AT END OF TIME STEP     2 IN STRESS PERIOD     21
                    SECONDS     MINUTES      HOURS       DAYS        YEARS
                    -----------------------------------------------------------
   TIME STEP LENGTH 1.31414E+06  21902.      365.04      15.210     4.16427E-02
 STRESS PERIOD TIME 2.62829E+06  43805.      730.08      30.420     8.32854E-02
         TOTAL TIME 5.51941E+07 9.19901E+05  15332.      638.82      1.7490    
1
1
  FLUX ACROSS PARENT-CHILD INTERFACE AT TIME STEP  2 IN STRESS PERIOD   21
  ------------------------------------------------------------------------
 G-N FLUX        PARENT        CHILD         DIFFERENCE      % DIFFERENCE
  RATE IN:      1.7273E+03    1.7267E+03     6.1621E-01        0.0357
 RATE OUT:      2.9830E+03    2.9827E+03     3.6768E-01        0.0123
1
                            STRESS PERIOD NO.     22, LENGTH =   30.42000    
                            -----------------------------------------------

                              NUMBER OF TIME STEPS =     2

                               MULTIPLIER FOR DELT =     1.000

                            INITIAL TIME STEP SIZE =   15.21000    

 REUSING STREAM SEGMENT DATA FROM LAST STRESS PERIOD

 Parameter:  WELLS1
 WELL NO. LAYER    ROW    COL  F-WELL ID    FARM ID         QMAX         QMAXRESET       LGRGRID         
 --------------------------------------------------------------------------------------------------------
       1      1      2      2          5          2      2.0000E+03              0              0
       2      1      5      5          6          2      1.0000E+03              0              0

 NUMBER OF ACTIVE FARM WELLS:        2

 FARM-ID  NUMBER OF WELLS PER FARM  TOTAL MAX.CAPACITY PER FARM
       1                         0                       0.0000
       2                         2                    3000.0000
       3                         0                       0.0000
       4                         0                       0.0000
       5                         0                       0.0000
       6                         0                       0.0000
       7                         0                       0.0000
       8                         0                       0.0000

Transpiratory and Evaporative Fractions of Crop Consumptive Use
    % Transpiration % Evap. for Precip. % Evap. for Irrig.
    3          0.894          0.106          0.106
    5          0.927          0.073          0.000

FRACTIONS OF IN-EFFICIENT LOSSES TO SW-RUNOFF FROM 
     PRECIPITATION:  IRRIGATION:
    3          0.600          0.500
    5          0.500          0.000
 
 SOLVING FOR HEAD 


     4 CALLS TO PCG ROUTINE FOR TIME STEP   1 IN STRESS PERIOD   22
    22 TOTAL ITERATIONS


     5 CALLS TO PCG ROUTINE FOR TIME STEP   1 IN STRESS PERIOD   22
    22 TOTAL ITERATIONS


     4 CALLS TO PCG ROUTINE FOR TIME STEP   1 IN STRESS PERIOD   22
    12 TOTAL ITERATIONS


     3 CALLS TO PCG ROUTINE FOR TIME STEP   1 IN STRESS PERIOD   22
     9 TOTAL ITERATIONS


     3 CALLS TO PCG ROUTINE FOR TIME STEP   1 IN STRESS PERIOD   22
     9 TOTAL ITERATIONS


     3 CALLS TO PCG ROUTINE FOR TIME STEP   1 IN STRESS PERIOD   22
     7 TOTAL ITERATIONS


     3 CALLS TO PCG ROUTINE FOR TIME STEP   1 IN STRESS PERIOD   22
     7 TOTAL ITERATIONS


     3 CALLS TO PCG ROUTINE FOR TIME STEP   1 IN STRESS PERIOD   22
     7 TOTAL ITERATIONS


     2 CALLS TO PCG ROUTINE FOR TIME STEP   1 IN STRESS PERIOD   22
     4 TOTAL ITERATIONS


     2 CALLS TO PCG ROUTINE FOR TIME STEP   1 IN STRESS PERIOD   22
     4 TOTAL ITERATIONS


     1 CALLS TO PCG ROUTINE FOR TIME STEP   1 IN STRESS PERIOD   22
     1 TOTAL ITERATIONS

 OUTPUT CONTROL FOR STRESS PERIOD     22   TIME STEP     1
    SAVE BUDGET
 UBDSV1 SAVING "         STORAGE" ON UNIT7013 AT TIME STEP    1, STRESS PERIOD  22
 UBDSV2 SAVING "   CONSTANT HEAD" ON UNIT7013 AT TIME STEP    1, STRESS PERIOD  22
 UBDSV1 SAVING "FLOW RIGHT FACE " ON UNIT7013 AT TIME STEP    1, STRESS PERIOD  22
 UBDSV1 SAVING "FLOW FRONT FACE " ON UNIT7013 AT TIME STEP    1, STRESS PERIOD  22
 UBDSV1 SAVING "FLOW LOWER FACE " ON UNIT7013 AT TIME STEP    1, STRESS PERIOD  22
 UBDSV4 SAVING "  STREAM LEAKAGE" ON UNIT7013 AT TIME STEP    1, STRESS PERIOD  22



 UBDSV3 SAVING "FARM  NET  RECH." ON UNIT7013 AT TIME STEP    1, STRESS PERIOD  22
 UBDSV4 SAVING " GHOST-NODE HEAD" ON UNIT7013 AT TIME STEP    1, STRESS PERIOD  22
1
  FLUX ACROSS PARENT-CHILD INTERFACE AT TIME STEP  1 IN STRESS PERIOD   22
  ------------------------------------------------------------------------
 G-N FLUX        PARENT        CHILD         DIFFERENCE      % DIFFERENCE
  RATE IN:      1.4762E+03    1.4757E+03     5.2686E-01        0.0357
 RATE OUT:      3.0957E+03    3.0951E+03     5.7642E-01        0.0186
 
 SOLVING FOR HEAD 
     4 CALLS TO PCG ROUTINE FOR TIME STEP   2 IN STRESS PERIOD   22
    22 TOTAL ITERATIONS
     5 CALLS TO PCG ROUTINE FOR TIME STEP   2 IN STRESS PERIOD   22
    23 TOTAL ITERATIONS
     4 CALLS TO PCG ROUTINE FOR TIME STEP   2 IN STRESS PERIOD   22
    14 TOTAL ITERATIONS
     4 CALLS TO PCG ROUTINE FOR TIME STEP   2 IN STRESS PERIOD   22
    12 TOTAL ITERATIONS
     4 CALLS TO PCG ROUTINE FOR TIME STEP   2 IN STRESS PERIOD   22
    12 TOTAL ITERATIONS
     3 CALLS TO PCG ROUTINE FOR TIME STEP   2 IN STRESS PERIOD   22
     8 TOTAL ITERATIONS
     3 CALLS TO PCG ROUTINE FOR TIME STEP   2 IN STRESS PERIOD   22
     7 TOTAL ITERATIONS
     3 CALLS TO PCG ROUTINE FOR TIME STEP   2 IN STRESS PERIOD   22
     7 TOTAL ITERATIONS
     3 CALLS TO PCG ROUTINE FOR TIME STEP   2 IN STRESS PERIOD   22
     6 TOTAL ITERATIONS
     2 CALLS TO PCG ROUTINE FOR TIME STEP   2 IN STRESS PERIOD   22
     3 TOTAL ITERATIONS
     1 CALLS TO PCG ROUTINE FOR TIME STEP   2 IN STRESS PERIOD   22
     1 TOTAL ITERATIONS

 OUTPUT CONTROL FOR STRESS PERIOD     22   TIME STEP     2
    SAVE BUDGET
 UBDSV1 SAVING "         STORAGE" ON UNIT7013 AT TIME STEP    2, STRESS PERIOD  22
 UBDSV2 SAVING "   CONSTANT HEAD" ON UNIT7013 AT TIME STEP    2, STRESS PERIOD  22
 UBDSV1 SAVING "FLOW RIGHT FACE " ON UNIT7013 AT TIME STEP    2, STRESS PERIOD  22
 UBDSV1 SAVING "FLOW FRONT FACE " ON UNIT7013 AT TIME STEP    2, STRESS PERIOD  22
 UBDSV1 SAVING "FLOW LOWER FACE " ON UNIT7013 AT TIME STEP    2, STRESS PERIOD  22
 UBDSV4 SAVING "  STREAM LEAKAGE" ON UNIT7013 AT TIME STEP    2, STRESS PERIOD  22



 UBDSV3 SAVING "FARM  NET  RECH." ON UNIT7013 AT TIME STEP    2, STRESS PERIOD  22
 UBDSV4 SAVING " GHOST-NODE HEAD" ON UNIT7013 AT TIME STEP    2, STRESS PERIOD  22
1
  VOLUMETRIC BUDGET FOR ENTIRE MODEL AT END OF TIME STEP    2 IN STRESS PERIOD     22
  ------------------------------------------------------------------------------

     CUMULATIVE VOLUMES      L**3       RATES FOR THIS TIME STEP      L**3/T
     ------------------                 ------------------------

           IN:                                      IN:
           ---                                      ---
             STORAGE =      262291.8750               STORAGE =         181.4261
       CONSTANT HEAD =           0.0000         CONSTANT HEAD =           0.0000
      STREAM LEAKAGE =      241585.6250        STREAM LEAKAGE =        1142.7084
          FARM WELLS =           0.0000            FARM WELLS =           0.0000
    FARM  NET  RECH. =      330853.4688      FARM  NET  RECH. =        1142.7084
     GHOST-NODE HEAD =     1584413.8750       GHOST-NODE HEAD =        1431.7039

            TOTAL IN =     2419145.0000              TOTAL IN =        3898.5466

          OUT:                                     OUT:
          ----                                     ----
             STORAGE =       76334.1250               STORAGE =          13.8340
       CONSTANT HEAD =           0.0000         CONSTANT HEAD =           0.0000
      STREAM LEAKAGE =      111515.4375        STREAM LEAKAGE =           0.0000
          FARM WELLS =       78522.2266            FARM WELLS =         711.7002
    FARM  NET  RECH. =        3628.1860      FARM  NET  RECH. =           0.0000
     GHOST-NODE HEAD =     2149143.0000       GHOST-NODE HEAD =        3173.0789

           TOTAL OUT =     2419143.0000             TOTAL OUT =        3898.6130

            IN - OUT =           2.0000              IN - OUT =      -6.6406E-02

 PERCENT DISCREPANCY =           0.00     PERCENT DISCREPANCY =          -0.00






          TIME SUMMARY AT END OF TIME STEP     2 IN STRESS PERIOD     22
                    SECONDS     MINUTES      HOURS       DAYS        YEARS
                    -----------------------------------------------------------
   TIME STEP LENGTH 1.31414E+06  21902.      365.04      15.210     4.16427E-02
 STRESS PERIOD TIME 2.62829E+06  43805.      730.08      30.420     8.32854E-02
         TOTAL TIME 5.78223E+07 9.63706E+05  16062.      669.24      1.8323    
1
1
  FLUX ACROSS PARENT-CHILD INTERFACE AT TIME STEP  2 IN STRESS PERIOD   22
  ------------------------------------------------------------------------
 G-N FLUX        PARENT        CHILD         DIFFERENCE      % DIFFERENCE
  RATE IN:      1.4324E+03    1.4317E+03     7.1521E-01        0.0499
 RATE OUT:      3.1735E+03    3.1731E+03     3.9526E-01        0.0125
1
                            STRESS PERIOD NO.     23, LENGTH =   30.42000    
                            -----------------------------------------------

                              NUMBER OF TIME STEPS =     2

                               MULTIPLIER FOR DELT =     1.000

                            INITIAL TIME STEP SIZE =   15.21000    

 REUSING STREAM SEGMENT DATA FROM LAST STRESS PERIOD

 Parameter:  WELLS1
 WELL NO. LAYER    ROW    COL  F-WELL ID    FARM ID         QMAX         QMAXRESET       LGRGRID         
 --------------------------------------------------------------------------------------------------------
       1      1      2      2          5          2      2.0000E+03              0              0
       2      1      5      5          6          2      1.0000E+03              0              0

 NUMBER OF ACTIVE FARM WELLS:        2

 FARM-ID  NUMBER OF WELLS PER FARM  TOTAL MAX.CAPACITY PER FARM
       1                         0                       0.0000
       2                         2                    3000.0000
       3                         0                       0.0000
       4                         0                       0.0000
       5                         0                       0.0000
       6                         0                       0.0000
       7                         0                       0.0000
       8                         0                       0.0000

Transpiratory and Evaporative Fractions of Crop Consumptive Use
    % Transpiration % Evap. for Precip. % Evap. for Irrig.
    3          0.954          0.046          0.046
    5          0.927          0.073          0.000

FRACTIONS OF IN-EFFICIENT LOSSES TO SW-RUNOFF FROM 
     PRECIPITATION:  IRRIGATION:
    3          0.600          0.500
    5          0.500          0.000
 
 SOLVING FOR HEAD 


     5 CALLS TO PCG ROUTINE FOR TIME STEP   1 IN STRESS PERIOD   23
    21 TOTAL ITERATIONS


     3 CALLS TO PCG ROUTINE FOR TIME STEP   1 IN STRESS PERIOD   23
    11 TOTAL ITERATIONS


     2 CALLS TO PCG ROUTINE FOR TIME STEP   1 IN STRESS PERIOD   23
     8 TOTAL ITERATIONS


     2 CALLS TO PCG ROUTINE FOR TIME STEP   1 IN STRESS PERIOD   23
     7 TOTAL ITERATIONS


     2 CALLS TO PCG ROUTINE FOR TIME STEP   1 IN STRESS PERIOD   23
     6 TOTAL ITERATIONS


     2 CALLS TO PCG ROUTINE FOR TIME STEP   1 IN STRESS PERIOD   23
     6 TOTAL ITERATIONS


     2 CALLS TO PCG ROUTINE FOR TIME STEP   1 IN STRESS PERIOD   23
     6 TOTAL ITERATIONS


     2 CALLS TO PCG ROUTINE FOR TIME STEP   1 IN STRESS PERIOD   23
     6 TOTAL ITERATIONS


     2 CALLS TO PCG ROUTINE FOR TIME STEP   1 IN STRESS PERIOD   23
     4 TOTAL ITERATIONS


     2 CALLS TO PCG ROUTINE FOR TIME STEP   1 IN STRESS PERIOD   23
     4 TOTAL ITERATIONS


     2 CALLS TO PCG ROUTINE FOR TIME STEP   1 IN STRESS PERIOD   23
     3 TOTAL ITERATIONS

 OUTPUT CONTROL FOR STRESS PERIOD     23   TIME STEP     1
    SAVE BUDGET
 UBDSV1 SAVING "         STORAGE" ON UNIT7013 AT TIME STEP    1, STRESS PERIOD  23
 UBDSV2 SAVING "   CONSTANT HEAD" ON UNIT7013 AT TIME STEP    1, STRESS PERIOD  23
 UBDSV1 SAVING "FLOW RIGHT FACE " ON UNIT7013 AT TIME STEP    1, STRESS PERIOD  23
 UBDSV1 SAVING "FLOW FRONT FACE " ON UNIT7013 AT TIME STEP    1, STRESS PERIOD  23
 UBDSV1 SAVING "FLOW LOWER FACE " ON UNIT7013 AT TIME STEP    1, STRESS PERIOD  23
 UBDSV4 SAVING "  STREAM LEAKAGE" ON UNIT7013 AT TIME STEP    1, STRESS PERIOD  23



 UBDSV3 SAVING "FARM  NET  RECH." ON UNIT7013 AT TIME STEP    1, STRESS PERIOD  23
 UBDSV4 SAVING " GHOST-NODE HEAD" ON UNIT7013 AT TIME STEP    1, STRESS PERIOD  23
1
  FLUX ACROSS PARENT-CHILD INTERFACE AT TIME STEP  1 IN STRESS PERIOD   23
  ------------------------------------------------------------------------
 G-N FLUX        PARENT        CHILD         DIFFERENCE      % DIFFERENCE
  RATE IN:      2.6522E+03    2.6517E+03     4.9463E-01        0.0187
 RATE OUT:      3.1030E+03    3.1033E+03    -2.3926E-01       -0.0077
 
 SOLVING FOR HEAD 
     6 CALLS TO PCG ROUTINE FOR TIME STEP   2 IN STRESS PERIOD   23
    24 TOTAL ITERATIONS
     3 CALLS TO PCG ROUTINE FOR TIME STEP   2 IN STRESS PERIOD   23
    11 TOTAL ITERATIONS
     2 CALLS TO PCG ROUTINE FOR TIME STEP   2 IN STRESS PERIOD   23
     7 TOTAL ITERATIONS
     2 CALLS TO PCG ROUTINE FOR TIME STEP   2 IN STRESS PERIOD   23
     6 TOTAL ITERATIONS
     2 CALLS TO PCG ROUTINE FOR TIME STEP   2 IN STRESS PERIOD   23
     6 TOTAL ITERATIONS
     2 CALLS TO PCG ROUTINE FOR TIME STEP   2 IN STRESS PERIOD   23
     6 TOTAL ITERATIONS
     2 CALLS TO PCG ROUTINE FOR TIME STEP   2 IN STRESS PERIOD   23
     6 TOTAL ITERATIONS
     2 CALLS TO PCG ROUTINE FOR TIME STEP   2 IN STRESS PERIOD   23
     4 TOTAL ITERATIONS
     2 CALLS TO PCG ROUTINE FOR TIME STEP   2 IN STRESS PERIOD   23
     4 TOTAL ITERATIONS
     2 CALLS TO PCG ROUTINE FOR TIME STEP   2 IN STRESS PERIOD   23
     3 TOTAL ITERATIONS
     2 CALLS TO PCG ROUTINE FOR TIME STEP   2 IN STRESS PERIOD   23
     3 TOTAL ITERATIONS

 OUTPUT CONTROL FOR STRESS PERIOD     23   TIME STEP     2
    SAVE BUDGET
 UBDSV1 SAVING "         STORAGE" ON UNIT7013 AT TIME STEP    2, STRESS PERIOD  23
 UBDSV2 SAVING "   CONSTANT HEAD" ON UNIT7013 AT TIME STEP    2, STRESS PERIOD  23
 UBDSV1 SAVING "FLOW RIGHT FACE " ON UNIT7013 AT TIME STEP    2, STRESS PERIOD  23
 UBDSV1 SAVING "FLOW FRONT FACE " ON UNIT7013 AT TIME STEP    2, STRESS PERIOD  23
 UBDSV1 SAVING "FLOW LOWER FACE " ON UNIT7013 AT TIME STEP    2, STRESS PERIOD  23
 UBDSV4 SAVING "  STREAM LEAKAGE" ON UNIT7013 AT TIME STEP    2, STRESS PERIOD  23



 UBDSV3 SAVING "FARM  NET  RECH." ON UNIT7013 AT TIME STEP    2, STRESS PERIOD  23
 UBDSV4 SAVING " GHOST-NODE HEAD" ON UNIT7013 AT TIME STEP    2, STRESS PERIOD  23
1
  VOLUMETRIC BUDGET FOR ENTIRE MODEL AT END OF TIME STEP    2 IN STRESS PERIOD     23
  ------------------------------------------------------------------------------

     CUMULATIVE VOLUMES      L**3       RATES FOR THIS TIME STEP      L**3/T
     ------------------                 ------------------------

           IN:                                      IN:
           ---                                      ---
             STORAGE =      265346.4062               STORAGE =           0.0000
       CONSTANT HEAD =           0.0000         CONSTANT HEAD =           0.0000
      STREAM LEAKAGE =      247010.6562        STREAM LEAKAGE =         178.3375
          FARM WELLS =           0.0000            FARM WELLS =           0.0000
    FARM  NET  RECH. =      336278.4688      FARM  NET  RECH. =         178.3375
     GHOST-NODE HEAD =     1670755.0000       GHOST-NODE HEAD =        3024.9263

            TOTAL IN =     2519390.5000              TOTAL IN =        3381.6013

          OUT:                                     OUT:
          ----                                     ----
             STORAGE =       81694.6562               STORAGE =         246.4973
       CONSTANT HEAD =           0.0000         CONSTANT HEAD =           0.0000
      STREAM LEAKAGE =      111515.4375        STREAM LEAKAGE =           0.0000
          FARM WELLS =       78522.2266            FARM WELLS =           0.0000
    FARM  NET  RECH. =        3628.1860      FARM  NET  RECH. =           0.0000
     GHOST-NODE HEAD =     2244029.2500       GHOST-NODE HEAD =        3135.1323

           TOTAL OUT =     2519389.7500             TOTAL OUT =        3381.6296

            IN - OUT =           0.7500              IN - OUT =      -2.8320E-02

 PERCENT DISCREPANCY =           0.00     PERCENT DISCREPANCY =          -0.00






          TIME SUMMARY AT END OF TIME STEP     2 IN STRESS PERIOD     23
                    SECONDS     MINUTES      HOURS       DAYS        YEARS
                    -----------------------------------------------------------
   TIME STEP LENGTH 1.31414E+06  21902.      365.04      15.210     4.16427E-02
 STRESS PERIOD TIME 2.62829E+06  43805.      730.08      30.420     8.32854E-02
         TOTAL TIME 6.04506E+07 1.00751E+06  16792.      699.66      1.9156    
1
1
  FLUX ACROSS PARENT-CHILD INTERFACE AT TIME STEP  2 IN STRESS PERIOD   23
  ------------------------------------------------------------------------
 G-N FLUX        PARENT        CHILD         DIFFERENCE      % DIFFERENCE
  RATE IN:      3.0253E+03    3.0249E+03     3.3179E-01        0.0110
 RATE OUT:      3.1351E+03    3.1351E+03    -7.0557E-02       -0.0023
1
                            STRESS PERIOD NO.     24, LENGTH =   30.42000    
                            -----------------------------------------------

                              NUMBER OF TIME STEPS =     2

                               MULTIPLIER FOR DELT =     1.000

                            INITIAL TIME STEP SIZE =   15.21000    

 REUSING STREAM SEGMENT DATA FROM LAST STRESS PERIOD

 Parameter:  WELLS1
 WELL NO. LAYER    ROW    COL  F-WELL ID    FARM ID         QMAX         QMAXRESET       LGRGRID         
 --------------------------------------------------------------------------------------------------------
       1      1      2      2          5          2      2.0000E+03              0              0
       2      1      5      5          6          2      1.0000E+03              0              0

 NUMBER OF ACTIVE FARM WELLS:        2

 FARM-ID  NUMBER OF WELLS PER FARM  TOTAL MAX.CAPACITY PER FARM
       1                         0                       0.0000
       2                         2                    3000.0000
       3                         0                       0.0000
       4                         0                       0.0000
       5                         0                       0.0000
       6                         0                       0.0000
       7                         0                       0.0000
       8                         0                       0.0000

Transpiratory and Evaporative Fractions of Crop Consumptive Use
    % Transpiration % Evap. for Precip. % Evap. for Irrig.
    3          0.957          0.043          0.043
    5          0.926          0.074          0.000

FRACTIONS OF IN-EFFICIENT LOSSES TO SW-RUNOFF FROM 
     PRECIPITATION:  IRRIGATION:
    3          0.600          0.500
    5          0.830          0.000
 
 SOLVING FOR HEAD 


     4 CALLS TO PCG ROUTINE FOR TIME STEP   1 IN STRESS PERIOD   24
    22 TOTAL ITERATIONS


     3 CALLS TO PCG ROUTINE FOR TIME STEP   1 IN STRESS PERIOD   24
    10 TOTAL ITERATIONS


     3 CALLS TO PCG ROUTINE FOR TIME STEP   1 IN STRESS PERIOD   24
    10 TOTAL ITERATIONS


     3 CALLS TO PCG ROUTINE FOR TIME STEP   1 IN STRESS PERIOD   24
     9 TOTAL ITERATIONS


     2 CALLS TO PCG ROUTINE FOR TIME STEP   1 IN STRESS PERIOD   24
     7 TOTAL ITERATIONS


     2 CALLS TO PCG ROUTINE FOR TIME STEP   1 IN STRESS PERIOD   24
     6 TOTAL ITERATIONS


     2 CALLS TO PCG ROUTINE FOR TIME STEP   1 IN STRESS PERIOD   24
     5 TOTAL ITERATIONS


     2 CALLS TO PCG ROUTINE FOR TIME STEP   1 IN STRESS PERIOD   24
     4 TOTAL ITERATIONS


     2 CALLS TO PCG ROUTINE FOR TIME STEP   1 IN STRESS PERIOD   24
     4 TOTAL ITERATIONS


     2 CALLS TO PCG ROUTINE FOR TIME STEP   1 IN STRESS PERIOD   24
     3 TOTAL ITERATIONS


     2 CALLS TO PCG ROUTINE FOR TIME STEP   1 IN STRESS PERIOD   24
     3 TOTAL ITERATIONS

 OUTPUT CONTROL FOR STRESS PERIOD     24   TIME STEP     1
    SAVE BUDGET
 UBDSV1 SAVING "         STORAGE" ON UNIT7013 AT TIME STEP    1, STRESS PERIOD  24
 UBDSV2 SAVING "   CONSTANT HEAD" ON UNIT7013 AT TIME STEP    1, STRESS PERIOD  24
 UBDSV1 SAVING "FLOW RIGHT FACE " ON UNIT7013 AT TIME STEP    1, STRESS PERIOD  24
 UBDSV1 SAVING "FLOW FRONT FACE " ON UNIT7013 AT TIME STEP    1, STRESS PERIOD  24
 UBDSV1 SAVING "FLOW LOWER FACE " ON UNIT7013 AT TIME STEP    1, STRESS PERIOD  24
 UBDSV4 SAVING "  STREAM LEAKAGE" ON UNIT7013 AT TIME STEP    1, STRESS PERIOD  24



 UBDSV3 SAVING "FARM  NET  RECH." ON UNIT7013 AT TIME STEP    1, STRESS PERIOD  24
 UBDSV4 SAVING " GHOST-NODE HEAD" ON UNIT7013 AT TIME STEP    1, STRESS PERIOD  24
1
  FLUX ACROSS PARENT-CHILD INTERFACE AT TIME STEP  1 IN STRESS PERIOD   24
  ------------------------------------------------------------------------
 G-N FLUX        PARENT        CHILD         DIFFERENCE      % DIFFERENCE
  RATE IN:      2.4158E+03    2.4158E+03    -3.6621E-03       -0.0002
 RATE OUT:      3.5013E+03    3.5011E+03     2.8931E-01        0.0083
 
 SOLVING FOR HEAD 
     3 CALLS TO PCG ROUTINE FOR TIME STEP   2 IN STRESS PERIOD   24
    12 TOTAL ITERATIONS
     3 CALLS TO PCG ROUTINE FOR TIME STEP   2 IN STRESS PERIOD   24
    10 TOTAL ITERATIONS
     3 CALLS TO PCG ROUTINE FOR TIME STEP   2 IN STRESS PERIOD   24
     9 TOTAL ITERATIONS
     2 CALLS TO PCG ROUTINE FOR TIME STEP   2 IN STRESS PERIOD   24
     7 TOTAL ITERATIONS
     2 CALLS TO PCG ROUTINE FOR TIME STEP   2 IN STRESS PERIOD   24
     5 TOTAL ITERATIONS
     2 CALLS TO PCG ROUTINE FOR TIME STEP   2 IN STRESS PERIOD   24
     5 TOTAL ITERATIONS
     2 CALLS TO PCG ROUTINE FOR TIME STEP   2 IN STRESS PERIOD   24
     4 TOTAL ITERATIONS
     2 CALLS TO PCG ROUTINE FOR TIME STEP   2 IN STRESS PERIOD   24
     4 TOTAL ITERATIONS
     2 CALLS TO PCG ROUTINE FOR TIME STEP   2 IN STRESS PERIOD   24
     4 TOTAL ITERATIONS
     2 CALLS TO PCG ROUTINE FOR TIME STEP   2 IN STRESS PERIOD   24
     4 TOTAL ITERATIONS
     2 CALLS TO PCG ROUTINE FOR TIME STEP   2 IN STRESS PERIOD   24
     3 TOTAL ITERATIONS

 OUTPUT CONTROL FOR STRESS PERIOD     24   TIME STEP     2
    PRINT BUDGET
    SAVE HEAD FOR ALL LAYERS
    SAVE BUDGET
 UBDSV1 SAVING "         STORAGE" ON UNIT7013 AT TIME STEP    2, STRESS PERIOD  24
 UBDSV2 SAVING "   CONSTANT HEAD" ON UNIT7013 AT TIME STEP    2, STRESS PERIOD  24
 UBDSV1 SAVING "FLOW RIGHT FACE " ON UNIT7013 AT TIME STEP    2, STRESS PERIOD  24
 UBDSV1 SAVING "FLOW FRONT FACE " ON UNIT7013 AT TIME STEP    2, STRESS PERIOD  24
 UBDSV1 SAVING "FLOW LOWER FACE " ON UNIT7013 AT TIME STEP    2, STRESS PERIOD  24
 UBDSV4 SAVING "  STREAM LEAKAGE" ON UNIT7013 AT TIME STEP    2, STRESS PERIOD  24



 UBDSV3 SAVING "FARM  NET  RECH." ON UNIT7013 AT TIME STEP    2, STRESS PERIOD  24
 UBDSV4 SAVING " GHOST-NODE HEAD" ON UNIT7013 AT TIME STEP    2, STRESS PERIOD  24

 HEAD WILL BE SAVED ON UNIT 2213 AT END OF TIME STEP     2, STRESS PERIOD     24
1
  VOLUMETRIC BUDGET FOR ENTIRE MODEL AT END OF TIME STEP    2 IN STRESS PERIOD     24
  ------------------------------------------------------------------------------

     CUMULATIVE VOLUMES      L**3       RATES FOR THIS TIME STEP      L**3/T
     ------------------                 ------------------------

           IN:                                      IN:
           ---                                      ---
             STORAGE =      265346.4062               STORAGE =           0.0000
       CONSTANT HEAD =           0.0000         CONSTANT HEAD =           0.0000
      STREAM LEAKAGE =      291100.5312        STREAM LEAKAGE =        1222.7264
          FARM WELLS =           0.0000            FARM WELLS =           0.0000
    FARM  NET  RECH. =      360054.3438      FARM  NET  RECH. =         781.5877
     GHOST-NODE HEAD =     1745981.6250       GHOST-NODE HEAD =        2530.0833

            TOTAL IN =     2662483.0000              TOTAL IN =        4534.3975

          OUT:                                     OUT:
          ----                                     ----
             STORAGE =      116990.7188               STORAGE =         948.2087
       CONSTANT HEAD =           0.0000         CONSTANT HEAD =           0.0000
      STREAM LEAKAGE =      111515.4375        STREAM LEAKAGE =           0.0000
          FARM WELLS =       78522.2266            FARM WELLS =           0.0000
    FARM  NET  RECH. =        3628.1860      FARM  NET  RECH. =           0.0000
     GHOST-NODE HEAD =     2351826.7500       GHOST-NODE HEAD =        3586.2219

           TOTAL OUT =     2662483.2500             TOTAL OUT =        4534.4307

            IN - OUT =          -0.2500              IN - OUT =      -3.3203E-02

 PERCENT DISCREPANCY =          -0.00     PERCENT DISCREPANCY =          -0.00






          TIME SUMMARY AT END OF TIME STEP     2 IN STRESS PERIOD     24
                    SECONDS     MINUTES      HOURS       DAYS        YEARS
                    -----------------------------------------------------------
   TIME STEP LENGTH 1.31414E+06  21902.      365.04      15.210     4.16427E-02
 STRESS PERIOD TIME 2.62829E+06  43805.      730.08      30.420     8.32854E-02
         TOTAL TIME 6.30789E+07 1.05132E+06  17522.      730.08      1.9989    
1
1
  FLUX ACROSS PARENT-CHILD INTERFACE AT TIME STEP  2 IN STRESS PERIOD   24
  ------------------------------------------------------------------------
 G-N FLUX        PARENT        CHILD         DIFFERENCE      % DIFFERENCE
  RATE IN:      2.5304E+03    2.5301E+03     3.4473E-01        0.0136
 RATE OUT:      3.5861E+03    3.5862E+03    -9.8145E-02       -0.0027

 Run end date and time (yyyy/mm/dd hh:mm:ss): 1998/06/15  3:37:00
 Elapsed run time:  6.177 Seconds

